/*---------------------------------------------------------------------------*\
| =========                 |                                                 |
| \\      /  F ield         | OpenFOAM: The Open Source CFD Toolbox           |
|  \\    /   O peration     | Version:  2312                                  |
|   \\  /    A nd           | Website:  www.openfoam.com                      |
|    \\/     M anipulation  |                                                 |
\*---------------------------------------------------------------------------*/
Build  : _e651d635-20240208 OPENFOAM=2312 patch=240220 version=2312
Arch   : "LSB;label=32;scalar=64"
Exec   : interFoam -parallel
Date   : Dec 17 2025
Time   : 12:30:10
Host   : U038472
PID    : 3081270
I/O    : uncollated
Case   : /home/docencia/RotationalTankMain/RotationalTank_C1
nProcs : 22
Hosts  :
(
    (U038472 22)
)
Pstream initialized with:
    floatTransfer      : false
    nProcsSimpleSum    : 0
    nonBlockingExchange: 0 (tuning: 0)
    exchange algorithm : 0
    commsType          : nonBlocking
    polling iterations : 0
trapFpe: Floating point exception trapping enabled (FOAM_SIGFPE).
fileModificationChecking : Monitoring run-time modified files using timeStampMaster (fileModificationSkew 5, maxFileModificationPolls 20)
allowSystemOperations : Allowing user-supplied system call operations

// * * * * * * * * * * * * * * * * * * * * * * * * * * * * * * * * * * * * * //
Create time

Create mesh for time = 0

Selecting dynamicFvMesh dynamicMotionSolverFvMesh
Selecting motion solver: mrigidBodyMotion
Applying motion to entire mesh
Initializing with zero velocity
Selecting mrigidBodySolver mNewmark
Initializing mrigidBodyMotion

PIMPLE: Operating solver in PISO mode

Reading field p_rgh

Reading field U

Reading/calculating face flux field phi

Reading transportProperties

Selecting incompressible transport model Newtonian
Selecting incompressible transport model Newtonian
Selecting turbulence model type laminar
Selecting laminar stress model Stokes

Reading g

Reading hRef
Calculating field g.h

No MRF models present

No finite volume options present
DICPCG:  Solving for pcorr, Initial residual = 0, Final residual = 0, No Iterations 0
DICPCG:  Solving for pcorr, Initial residual = 0, Final residual = 0, No Iterations 0
time step continuity errors : sum local = 0, global = 0, cumulative = 0
Constructing face velocity Uf

Courant Number mean: 0 max: 0

Starting time loop

forces forces1:
    p: p
    U: U
    rho: rho
    Reference pressure (pRef) set to 0
    Not including porosity effects

--> FOAM Warning : 
    From virtual void Foam::probes::findElements(const Foam::fvMesh&)
    in file probes/probes.C at line 227
    Did not find location (0 0 -0.1) in any cell. Skipping location.
--> FOAM Warning : 
    From virtual void Foam::probes::findElements(const Foam::fvMesh&)
    in file probes/probes.C at line 227
    Did not find location (0 0.1 -0.1) in any cell. Skipping location.
--> FOAM Warning : 
    From virtual void Foam::probes::findElements(const Foam::fvMesh&)
    in file probes/probes.C at line 227
    Did not find location (0 0.2 -0.1) in any cell. Skipping location.
--> FOAM Warning : 
    From virtual void Foam::probes::findElements(const Foam::fvMesh&)
    in file probes/probes.C at line 227
    Did not find location (0.1 0.1 -0.1) in any cell. Skipping location.
--> FOAM Warning : 
    From virtual void Foam::probes::findElements(const Foam::fvMesh&)
    in file probes/probes.C at line 227
    Did not find location (0 0 -0.1) in any cell. Skipping location.
--> FOAM Warning : 
    From virtual void Foam::probes::findElements(const Foam::fvMesh&)
    in file probes/probes.C at line 227
    Did not find location (0.1 0 -0.1) in any cell. Skipping location.
--> FOAM Warning : 
    From virtual void Foam::probes::findElements(const Foam::fvMesh&)
    in file probes/probes.C at line 227
    Did not find location (0.2 0 -0.1) in any cell. Skipping location.
--> FOAM Warning : 
    From virtual void Foam::probes::findElements(const Foam::fvMesh&)
    in file probes/probes.C at line 227
    Did not find location (0 0.385 -0.1) in any cell. Skipping location.
Sampled set:
    gauge_1 -> csv
    gauge_2 -> csv
    gauge_3 -> csv
    gauge_4 -> csv
    gauge_5 -> csv
    gauge_6 -> csv

Courant Number mean: 0 max: 0
Interface Courant Number mean: 0 max: 0
deltaT = 7.20461e-05
Time = 7.20461e-05

PIMPLE: iteration 1
forces forces:
    rho: rho
    Not including porosity effects

Solver_ running
 Applying restraint to: 
Modified forward dynamics running
qDdot[0]=0.788768
qDdot[2]=-0.000356878
forces forces:
    rho: rho
    Not including porosity effects

Solver_ running
 Applying restraint to: 
Modified forward dynamics running
qDdot[0]=0.788768
qDdot[2]=-0.000356878
forces forces:
    rho: rho
    Not including porosity effects

Solver_ running
 Applying restraint to: 
Modified forward dynamics running
qDdot[0]=0.788768
qDdot[2]=-0.000356878
forces forces:
    rho: rho
    Not including porosity effects

Solver_ running
 Applying restraint to: 
Modified forward dynamics running
qDdot[0]=0.788768
qDdot[2]=-0.000356878
forces forces:
    rho: rho
    Not including porosity effects

Solver_ running
 Applying restraint to: 
Modified forward dynamics running
qDdot[0]=0.788768
qDdot[2]=-0.000356878
forces forces:
    rho: rho
    Not including porosity effects

Solver_ running
 Applying restraint to: 
Modified forward dynamics running
qDdot[0]=0.788768
qDdot[2]=-0.000356878
forces forces:
    rho: rho
    Not including porosity effects

Solver_ running
 Applying restraint to: 
Modified forward dynamics running
qDdot[0]=0.788768
qDdot[2]=-0.000356878
forces forces:
    rho: rho
    Not including porosity effects

Solver_ running
 Applying restraint to: 
Modified forward dynamics running
qDdot[0]=0.788768
qDdot[2]=-0.000356878
forces forces:
    rho: rho
    Not including porosity effects

Solver_ running
 Applying restraint to: 
Modified forward dynamics running
qDdot[0]=0.788768
qDdot[2]=-0.000356878
forces forces:
    rho: rho
    Not including porosity effects

Solver_ running
 Applying restraint to: 
Modified forward dynamics running
qDdot[0]=0.788768
qDdot[2]=-0.000356878
forces forces:
    rho: rho
    Not including porosity effects

Solver_ running
 Applying restraint to: 
Modified forward dynamics running
qDdot[0]=0.788768
qDdot[2]=-0.000356878
forces forces:
    rho: rho
    Not including porosity effects

Solver_ running
 Applying restraint to: 
Modified forward dynamics running
qDdot[0]=0.788768
qDdot[2]=-0.000356878
Rigid-body motion of the movingWalls
    Centre of rotation: (1.02355e-09 -1.75046e-18 9.04899e-06)
    Orientation: (1 0 8.60947e-17 0 1 0 -8.60947e-17 0 1)
    Linear velocity: (2.84138e-05 -4.85927e-14 0.1256)
    Angular velocity: (0 -2.38999e-12 0)
smoothSolver:  Solving for alpha.water, Initial residual = 1.11478e-06, Final residual = 1.89906e-18, No Iterations 1
Phase-1 volume fraction = 0.0392193  Min(alpha.water) = 0  Max(alpha.water) = 1.00015
MULES: Correcting alpha.water
MULES: Correcting alpha.water
Phase-1 volume fraction = 0.0392193  Min(alpha.water) = 0  Max(alpha.water) = 1.00015
GAMG:  Solving for p_rgh, Initial residual = 1, Final residual = 0.00918626, No Iterations 2
GAMG:  Solving for p_rgh, Initial residual = 0.000563022, Final residual = 5.55713e-06, No Iterations 7
time step continuity errors : sum local = 7.88659e-08, global = -4.03008e-09, cumulative = -4.03008e-09
GAMG:  Solving for p_rgh, Initial residual = 0.000119159, Final residual = 9.93486e-07, No Iterations 3
GAMG:  Solving for p_rgh, Initial residual = 4.85869e-06, Final residual = 6.0946e-07, No Iterations 1
time step continuity errors : sum local = 1.68031e-08, global = -1.04162e-09, cumulative = -5.0717e-09
GAMG:  Solving for p_rgh, Initial residual = 9.54784e-07, Final residual = 9.54784e-07, No Iterations 0
GAMG:  Solving for p_rgh, Initial residual = 9.54784e-07, Final residual = 9.54784e-07, No Iterations 0
time step continuity errors : sum local = 2.63603e-08, global = -1.0416e-09, cumulative = -6.1133e-09
ExecutionTime = 0.55 s  ClockTime = 0 s

fieldMinMax fieldMinMax1 write:
    min(mag(U)) = 0 in cell 43 at location (-0.0115485 0.00478355 0.33125) on processor 0
    max(mag(U)) = 0.313983 in cell 11030 at location (-0.162531 0.136965 0.131859) on processor 13

forces forces1 write:
    Sum of forces
        Total    : (-0.0275252 -0.0202568 189.596)
        Pressure : (-0.0275252 -0.0202567 189.595)
        Viscous  : (-2.40653e-08 -2.07632e-08 0.000485733)
    Sum of moments
        Total    : (0.00778236 -0.00985346 -1.3925e-06)
        Pressure : (0.00778235 -0.00985345 -1.39248e-06)
        Viscous  : (8.39776e-09 -8.90803e-09 -2.16624e-11)
    writing force and moment files.

Courant Number mean: 0.00016092 max: 0.0164336
Interface Courant Number mean: 0 max: 0
deltaT = 8.63805e-05
Time = 0.000158427

PIMPLE: iteration 1
forces forces:
    rho: rho
    Not including porosity effects

Solver_ running
 Applying restraint to: 
Modified forward dynamics running
qDdot[0]=0.788768
qDdot[2]=-0.00078476
forces forces:
    rho: rho
    Not including porosity effects

Solver_ running
 Applying restraint to: 
Modified forward dynamics running
qDdot[0]=0.788768
qDdot[2]=-0.00078476
forces forces:
    rho: rho
    Not including porosity effects

Solver_ running
 Applying restraint to: 
Modified forward dynamics running
qDdot[0]=0.788768
qDdot[2]=-0.00078476
forces forces:
    rho: rho
    Not including porosity effects

Solver_ running
 Applying restraint to: 
Modified forward dynamics running
qDdot[0]=0.788768
qDdot[2]=-0.00078476
forces forces:
    rho: rho
    Not including porosity effects

Solver_ running
 Applying restraint to: 
Modified forward dynamics running
qDdot[0]=0.788768
qDdot[2]=-0.00078476
forces forces:
    rho: rho
    Not including porosity effects

Solver_ running
 Applying restraint to: 
Modified forward dynamics running
qDdot[0]=0.788768
qDdot[2]=-0.00078476
forces forces:
    rho: rho
    Not including porosity effects

Solver_ running
 Applying restraint to: 
Modified forward dynamics running
qDdot[0]=0.788768
qDdot[2]=-0.00078476
forces forces:
    rho: rho
    Not including porosity effects

Solver_ running
 Applying restraint to: 
Modified forward dynamics running
qDdot[0]=0.788768
qDdot[2]=-0.00078476
forces forces:
    rho: rho
    Not including porosity effects

Solver_ running
 Applying restraint to: 
Modified forward dynamics running
qDdot[0]=0.788768
qDdot[2]=-0.00078476
forces forces:
    rho: rho
    Not including porosity effects

Solver_ running
 Applying restraint to: 
Modified forward dynamics running
qDdot[0]=0.788768
qDdot[2]=-0.00078476
forces forces:
    rho: rho
    Not including porosity effects

Solver_ running
 Applying restraint to: 
Modified forward dynamics running
qDdot[0]=0.788768
qDdot[2]=-0.00078476
forces forces:
    rho: rho
    Not including porosity effects

Solver_ running
 Applying restraint to: 
Modified forward dynamics running
qDdot[0]=0.788768
qDdot[2]=-0.00078476
Rigid-body motion of the movingWalls
    Centre of rotation: (6.42069e-09 -1.02483e-10 1.98984e-05)
    Orientation: (1 0 -1.67001e-14 0 1 0 1.67001e-14 0 1)
    Linear velocity: (9.6548e-05 -2.37284e-06 0.1256)
    Angular velocity: (0 3.91047e-10 0)
smoothSolver:  Solving for alpha.water, Initial residual = 1.32852e-06, Final residual = 1.48562e-11, No Iterations 1
Phase-1 volume fraction = 0.0392193  Min(alpha.water) = 0  Max(alpha.water) = 1.00015
MULES: Correcting alpha.water
MULES: Correcting alpha.water
Phase-1 volume fraction = 0.0392193  Min(alpha.water) = -1.74776e-21  Max(alpha.water) = 1.00015
GAMG:  Solving for p_rgh, Initial residual = 0.000158, Final residual = 1.08262e-06, No Iterations 10
GAMG:  Solving for p_rgh, Initial residual = 0.00493945, Final residual = 4.38184e-05, No Iterations 2
time step continuity errors : sum local = 9.47093e-08, global = 2.85939e-09, cumulative = -3.25391e-09
GAMG:  Solving for p_rgh, Initial residual = 0.000215702, Final residual = 1.30304e-06, No Iterations 6
GAMG:  Solving for p_rgh, Initial residual = 6.7905e-05, Final residual = 9.86466e-07, No Iterations 2
time step continuity errors : sum local = 1.74071e-09, global = 7.33661e-11, cumulative = -3.18054e-09
GAMG:  Solving for p_rgh, Initial residual = 6.03478e-06, Final residual = 6.31657e-07, No Iterations 1
GAMG:  Solving for p_rgh, Initial residual = 1.20503e-06, Final residual = 3.0504e-07, No Iterations 1
time step continuity errors : sum local = 5.35944e-10, global = 2.23678e-11, cumulative = -3.15817e-09
ExecutionTime = 0.84 s  ClockTime = 0 s

fieldMinMax fieldMinMax1 write:
    min(mag(U)) = 0 in cell 43 at location (-0.0115485 0.00478355 0.33125) on processor 0
    max(mag(U)) = 0.318072 in cell 6279 at location (-0.162531 -0.136965 0.13187) on processor 18

forces forces1 write:
    Sum of forces
        Total    : (0.0950567 0.0202348 1.73596)
        Pressure : (0.0950566 0.0202348 1.73547)
        Viscous  : (7.29252e-08 3.63068e-09 0.000489154)
    Sum of moments
        Total    : (-0.00749255 0.031369 -3.72559e-08)
        Pressure : (-0.00749255 0.031369 -3.72479e-08)
        Viscous  : (-1.21463e-09 2.45039e-08 -7.93028e-12)
    writing force and moment files.

Courant Number mean: 0.000193209 max: 0.0196015
Interface Courant Number mean: 0 max: 0
deltaT = 0.000103621
Time = 0.000262047

PIMPLE: iteration 1
forces forces:
    rho: rho
    Not including porosity effects

Solver_ running
 Applying restraint to: 
Modified forward dynamics running
qDdot[0]=0.788767
qDdot[2]=-0.00129804
forces forces:
    rho: rho
    Not including porosity effects

Solver_ running
 Applying restraint to: 
Modified forward dynamics running
qDdot[0]=0.788767
qDdot[2]=-0.00129804
forces forces:
    rho: rho
    Not including porosity effects

Solver_ running
 Applying restraint to: 
Modified forward dynamics running
qDdot[0]=0.788767
qDdot[2]=-0.00129804
forces forces:
    rho: rho
    Not including porosity effects

Solver_ running
 Applying restraint to: 
Modified forward dynamics running
qDdot[0]=0.788767
qDdot[2]=-0.00129804
forces forces:
    rho: rho
    Not including porosity effects

Solver_ running
 Applying restraint to: 
Modified forward dynamics running
qDdot[0]=0.788767
qDdot[2]=-0.00129804
forces forces:
    rho: rho
    Not including porosity effects

Solver_ running
 Applying restraint to: 
Modified forward dynamics running
qDdot[0]=0.788767
qDdot[2]=-0.00129804
forces forces:
    rho: rho
    Not including porosity effects

Solver_ running
 Applying restraint to: 
Modified forward dynamics running
qDdot[0]=0.788767
qDdot[2]=-0.00129804
forces forces:
    rho: rho
    Not including porosity effects

Solver_ running
 Applying restraint to: 
Modified forward dynamics running
qDdot[0]=0.788767
qDdot[2]=-0.00129804
forces forces:
    rho: rho
    Not including porosity effects

Solver_ running
 Applying restraint to: 
Modified forward dynamics running
qDdot[0]=0.788767
qDdot[2]=-0.00129804
forces forces:
    rho: rho
    Not including porosity effects

Solver_ running
 Applying restraint to: 
Modified forward dynamics running
qDdot[0]=0.788767
qDdot[2]=-0.00129804
forces forces:
    rho: rho
    Not including porosity effects

Solver_ running
 Applying restraint to: 
Modified forward dynamics running
qDdot[0]=0.788767
qDdot[2]=-0.00129804
forces forces:
    rho: rho
    Not including porosity effects

Solver_ running
 Applying restraint to: 
Modified forward dynamics running
qDdot[0]=0.788767
qDdot[2]=-0.00129804
Rigid-body motion of the movingWalls
    Centre of rotation: (2.06597e-08 -5.44933e-10 3.29131e-05)
    Orientation: (1 0 3.58919e-13 0 1 0 -3.58919e-13 0 1)
    Linear velocity: (0.000178281 -6.16695e-06 0.1256)
    Angular velocity: (0 -7.64093e-09 0)
smoothSolver:  Solving for alpha.water, Initial residual = 1.5927e-06, Final residual = 2.22257e-11, No Iterations 1
Phase-1 volume fraction = 0.0392193  Min(alpha.water) = -7.09895e-28  Max(alpha.water) = 1.00015
MULES: Correcting alpha.water
MULES: Correcting alpha.water
Phase-1 volume fraction = 0.0392193  Min(alpha.water) = -1.37141e-27  Max(alpha.water) = 1.00015
GAMG:  Solving for p_rgh, Initial residual = 0.00092233, Final residual = 7.13021e-06, No Iterations 3
GAMG:  Solving for p_rgh, Initial residual = 1.82418e-05, Final residual = 7.8394e-07, No Iterations 4
time step continuity errors : sum local = 1.68711e-09, global = 9.22496e-11, cumulative = -3.06592e-09
GAMG:  Solving for p_rgh, Initial residual = 9.82386e-06, Final residual = 7.20642e-07, No Iterations 1
GAMG:  Solving for p_rgh, Initial residual = 8.53245e-07, Final residual = 8.53245e-07, No Iterations 0
time step continuity errors : sum local = 1.79578e-09, global = 8.91198e-11, cumulative = -2.9768e-09
GAMG:  Solving for p_rgh, Initial residual = 8.56334e-07, Final residual = 8.56334e-07, No Iterations 0
GAMG:  Solving for p_rgh, Initial residual = 8.56334e-07, Final residual = 8.56334e-07, No Iterations 0
time step continuity errors : sum local = 1.80228e-09, global = 8.91198e-11, cumulative = -2.88769e-09
ExecutionTime = 1.09 s  ClockTime = 1 s

fieldMinMax fieldMinMax1 write:
    min(mag(U)) = 0 in cell 43 at location (-0.0115485 0.00478355 0.33125) on processor 0
    max(mag(U)) = 0.321202 in cell 6279 at location (-0.162531 -0.136965 0.131883) on processor 18

forces forces1 write:
    Sum of forces
        Total    : (0.0757152 -0.00296021 1.29934)
        Pressure : (0.075715 -0.00296021 1.29885)
        Viscous  : (1.63809e-07 -1.82823e-10 0.000490888)
    Sum of moments
        Total    : (0.000935235 0.0243757 -1.36596e-08)
        Pressure : (0.000935235 0.0243757 -1.36528e-08)
        Viscous  : (6.53608e-11 5.50366e-08 -6.81863e-12)
    writing force and moment files.

Courant Number mean: 0.000231781 max: 0.0234033
Interface Courant Number mean: 0 max: 0
deltaT = 0.000124345
Time = 0.000386392

PIMPLE: iteration 1
forces forces:
    rho: rho
    Not including porosity effects

Solver_ running
 Applying restraint to: 
Modified forward dynamics running
qDdot[0]=0.788766
qDdot[2]=-0.00191398
forces forces:
    rho: rho
    Not including porosity effects

Solver_ running
 Applying restraint to: 
Modified forward dynamics running
qDdot[0]=0.788766
qDdot[2]=-0.00191398
forces forces:
    rho: rho
    Not including porosity effects

Solver_ running
 Applying restraint to: 
Modified forward dynamics running
qDdot[0]=0.788766
qDdot[2]=-0.00191398
forces forces:
    rho: rho
    Not including porosity effects

Solver_ running
 Applying restraint to: 
Modified forward dynamics running
qDdot[0]=0.788766
qDdot[2]=-0.00191398
forces forces:
    rho: rho
    Not including porosity effects

Solver_ running
 Applying restraint to: 
Modified forward dynamics running
qDdot[0]=0.788766
qDdot[2]=-0.00191398
forces forces:
    rho: rho
    Not including porosity effects

Solver_ running
 Applying restraint to: 
Modified forward dynamics running
qDdot[0]=0.788766
qDdot[2]=-0.00191398
forces forces:
    rho: rho
    Not including porosity effects

Solver_ running
 Applying restraint to: 
Modified forward dynamics running
qDdot[0]=0.788766
qDdot[2]=-0.00191398
forces forces:
    rho: rho
    Not including porosity effects

Solver_ running
 Applying restraint to: 
Modified forward dynamics running
qDdot[0]=0.788766
qDdot[2]=-0.00191398
forces forces:
    rho: rho
    Not including porosity effects

Solver_ running
 Applying restraint to: 
Modified forward dynamics running
qDdot[0]=0.788766
qDdot[2]=-0.00191398
forces forces:
    rho: rho
    Not including porosity effects

Solver_ running
 Applying restraint to: 
Modified forward dynamics running
qDdot[0]=0.788766
qDdot[2]=-0.00191398
forces forces:
    rho: rho
    Not including porosity effects

Solver_ running
 Applying restraint to: 
Modified forward dynamics running
qDdot[0]=0.788766
qDdot[2]=-0.00191398
forces forces:
    rho: rho
    Not including porosity effects

Solver_ running
 Applying restraint to: 
Modified forward dynamics running
qDdot[0]=0.788766
qDdot[2]=-0.00191398
Rigid-body motion of the movingWalls
    Centre of rotation: (4.89258e-08 -1.07811e-09 4.85308e-05)
    Orientation: (1 0 2.63012e-12 0 1 0 -2.63012e-12 0 1)
    Linear velocity: (0.00027636 -2.40889e-06 0.1256)
    Angular velocity: (0 -2.88897e-08 0)
smoothSolver:  Solving for alpha.water, Initial residual = 1.91265e-06, Final residual = 3.21798e-11, No Iterations 1
Phase-1 volume fraction = 0.0392193  Min(alpha.water) = -7.08345e-28  Max(alpha.water) = 1.00015
MULES: Correcting alpha.water
MULES: Correcting alpha.water
Phase-1 volume fraction = 0.0392193  Min(alpha.water) = -1.31656e-26  Max(alpha.water) = 1.00015
GAMG:  Solving for p_rgh, Initial residual = 0.00104402, Final residual = 4.15605e-06, No Iterations 3
GAMG:  Solving for p_rgh, Initial residual = 6.56687e-06, Final residual = 5.92228e-07, No Iterations 3
time step continuity errors : sum local = 1.64701e-09, global = 5.35242e-11, cumulative = -2.83416e-09
GAMG:  Solving for p_rgh, Initial residual = 4.79672e-06, Final residual = 4.62484e-07, No Iterations 1
GAMG:  Solving for p_rgh, Initial residual = 4.94247e-07, Final residual = 4.94247e-07, No Iterations 0
time step continuity errors : sum local = 1.36262e-09, global = 4.87003e-11, cumulative = -2.78546e-09
GAMG:  Solving for p_rgh, Initial residual = 4.93804e-07, Final residual = 4.93804e-07, No Iterations 0
GAMG:  Solving for p_rgh, Initial residual = 4.93804e-07, Final residual = 4.93804e-07, No Iterations 0
time step continuity errors : sum local = 1.3614e-09, global = 4.87003e-11, cumulative = -2.73676e-09
ExecutionTime = 1.34 s  ClockTime = 1 s

fieldMinMax fieldMinMax1 write:
    min(mag(U)) = 0 in cell 43 at location (-0.0115485 0.00478355 0.33125) on processor 0
    max(mag(U)) = 0.3238 in cell 2290 at location (0.16256 0.137006 0.131912) on processor 11

forces forces1 write:
    Sum of forces
        Total    : (0.0747673 -0.000477931 1.183)
        Pressure : (0.074767 -0.00047793 1.18251)
        Viscous  : (2.71611e-07 -1.01983e-09 0.000492222)
    Sum of moments
        Total    : (0.000160609 0.0240349 -7.14103e-09)
        Pressure : (0.000160608 0.0240348 -7.13298e-09)
        Viscous  : (3.67484e-10 9.12052e-08 -8.05137e-12)
    writing force and moment files.

Courant Number mean: 0.000278148 max: 0.0279851
Interface Courant Number mean: 0 max: 0
deltaT = 0.00014899
Time = 0.000535382

PIMPLE: iteration 1
forces forces:
    rho: rho
    Not including porosity effects

Solver_ running
 Applying restraint to: 
Modified forward dynamics running
qDdot[0]=0.788764
qDdot[2]=-0.00265199
forces forces:
    rho: rho
    Not including porosity effects

Solver_ running
 Applying restraint to: 
Modified forward dynamics running
qDdot[0]=0.788764
qDdot[2]=-0.00265199
forces forces:
    rho: rho
    Not including porosity effects

Solver_ running
 Applying restraint to: 
Modified forward dynamics running
qDdot[0]=0.788764
qDdot[2]=-0.00265199
forces forces:
    rho: rho
    Not including porosity effects

Solver_ running
 Applying restraint to: 
Modified forward dynamics running
qDdot[0]=0.788764
qDdot[2]=-0.00265199
forces forces:
    rho: rho
    Not including porosity effects

Solver_ running
 Applying restraint to: 
Modified forward dynamics running
qDdot[0]=0.788764
qDdot[2]=-0.00265199
forces forces:
    rho: rho
    Not including porosity effects

Solver_ running
 Applying restraint to: 
Modified forward dynamics running
qDdot[0]=0.788764
qDdot[2]=-0.00265199
forces forces:
    rho: rho
    Not including porosity effects

Solver_ running
 Applying restraint to: 
Modified forward dynamics running
qDdot[0]=0.788764
qDdot[2]=-0.00265199
forces forces:
    rho: rho
    Not including porosity effects

Solver_ running
 Applying restraint to: 
Modified forward dynamics running
qDdot[0]=0.788764
qDdot[2]=-0.00265199
forces forces:
    rho: rho
    Not including porosity effects

Solver_ running
 Applying restraint to: 
Modified forward dynamics running
qDdot[0]=0.788764
qDdot[2]=-0.00265199
forces forces:
    rho: rho
    Not including porosity effects

Solver_ running
 Applying restraint to: 
Modified forward dynamics running
qDdot[0]=0.788764
qDdot[2]=-0.00265199
forces forces:
    rho: rho
    Not including porosity effects

Solver_ running
 Applying restraint to: 
Modified forward dynamics running
qDdot[0]=0.788764
qDdot[2]=-0.00265199
forces forces:
    rho: rho
    Not including porosity effects

Solver_ running
 Applying restraint to: 
Modified forward dynamics running
qDdot[0]=0.788764
qDdot[2]=-0.00265199
Rigid-body motion of the movingWalls
    Centre of rotation: (9.8855e-08 -9.66683e-10 6.72439e-05)
    Orientation: (1 0 8.90779e-12 0 1 0 -8.90779e-12 0 1)
    Linear velocity: (0.000393878 3.90471e-06 0.125599)
    Angular velocity: (0 -5.53802e-08 0)
smoothSolver:  Solving for alpha.water, Initial residual = 2.29216e-06, Final residual = 4.64337e-11, No Iterations 1
Phase-1 volume fraction = 0.0392193  Min(alpha.water) = -7.14184e-28  Max(alpha.water) = 1.00015
MULES: Correcting alpha.water
MULES: Correcting alpha.water
Phase-1 volume fraction = 0.0392193  Min(alpha.water) = -1.58202e-26  Max(alpha.water) = 1.00015
GAMG:  Solving for p_rgh, Initial residual = 0.00121099, Final residual = 1.09958e-05, No Iterations 2
GAMG:  Solving for p_rgh, Initial residual = 1.22978e-05, Final residual = 6.78678e-07, No Iterations 3
time step continuity errors : sum local = 2.53185e-09, global = 3.36938e-11, cumulative = -2.70307e-09
GAMG:  Solving for p_rgh, Initial residual = 3.59475e-06, Final residual = 4.25832e-07, No Iterations 1
GAMG:  Solving for p_rgh, Initial residual = 4.4709e-07, Final residual = 4.4709e-07, No Iterations 0
time step continuity errors : sum local = 1.65562e-09, global = 3.77764e-11, cumulative = -2.66529e-09
GAMG:  Solving for p_rgh, Initial residual = 4.46214e-07, Final residual = 4.46214e-07, No Iterations 0
GAMG:  Solving for p_rgh, Initial residual = 4.46214e-07, Final residual = 4.46214e-07, No Iterations 0
time step continuity errors : sum local = 1.65237e-09, global = 3.77763e-11, cumulative = -2.62751e-09
ExecutionTime = 1.59 s  ClockTime = 1 s

fieldMinMax fieldMinMax1 write:
    min(mag(U)) = 0 in cell 43 at location (-0.0115485 0.00478355 0.33125) on processor 0
    max(mag(U)) = 0.326015 in cell 2290 at location (0.16256 0.137006 0.13193) on processor 11

forces forces1 write:
    Sum of forces
        Total    : (0.0753593 0.00330233 1.1257)
        Pressure : (0.0753589 0.00330233 1.12521)
        Viscous  : (4.02084e-07 4.64387e-09 0.00049334)
    Sum of moments
        Total    : (-0.00106003 0.0242348 -6.69612e-09)
        Pressure : (-0.00106003 0.0242347 -6.68829e-09)
        Viscous  : (-1.52669e-09 1.35017e-07 -7.83321e-12)
    writing force and moment files.

Courant Number mean: 0.000333321 max: 0.0334135
Interface Courant Number mean: 0 max: 0
deltaT = 0.000178573
Time = 0.000713955

PIMPLE: iteration 1
forces forces:
    rho: rho
    Not including porosity effects

Solver_ running
 Applying restraint to: 
Modified forward dynamics running
qDdot[0]=0.78876
qDdot[2]=-0.00353654
forces forces:
    rho: rho
    Not including porosity effects

Solver_ running
 Applying restraint to: 
Modified forward dynamics running
qDdot[0]=0.78876
qDdot[2]=-0.00353654
forces forces:
    rho: rho
    Not including porosity effects

Solver_ running
 Applying restraint to: 
Modified forward dynamics running
qDdot[0]=0.78876
qDdot[2]=-0.00353654
forces forces:
    rho: rho
    Not including porosity effects

Solver_ running
 Applying restraint to: 
Modified forward dynamics running
qDdot[0]=0.78876
qDdot[2]=-0.00353654
forces forces:
    rho: rho
    Not including porosity effects

Solver_ running
 Applying restraint to: 
Modified forward dynamics running
qDdot[0]=0.78876
qDdot[2]=-0.00353654
forces forces:
    rho: rho
    Not including porosity effects

Solver_ running
 Applying restraint to: 
Modified forward dynamics running
qDdot[0]=0.78876
qDdot[2]=-0.00353654
forces forces:
    rho: rho
    Not including porosity effects

Solver_ running
 Applying restraint to: 
Modified forward dynamics running
qDdot[0]=0.78876
qDdot[2]=-0.00353654
forces forces:
    rho: rho
    Not including porosity effects

Solver_ running
 Applying restraint to: 
Modified forward dynamics running
qDdot[0]=0.78876
qDdot[2]=-0.00353654
forces forces:
    rho: rho
    Not including porosity effects

Solver_ running
 Applying restraint to: 
Modified forward dynamics running
qDdot[0]=0.78876
qDdot[2]=-0.00353654
forces forces:
    rho: rho
    Not including porosity effects

Solver_ running
 Applying restraint to: 
Modified forward dynamics running
qDdot[0]=0.78876
qDdot[2]=-0.00353654
forces forces:
    rho: rho
    Not including porosity effects

Solver_ running
 Applying restraint to: 
Modified forward dynamics running
qDdot[0]=0.78876
qDdot[2]=-0.00353654
forces forces:
    rho: rho
    Not including porosity effects

Solver_ running
 Applying restraint to: 
Modified forward dynamics running
qDdot[0]=0.78876
qDdot[2]=-0.00353654
Rigid-body motion of the movingWalls
    Centre of rotation: (1.81767e-07 -8.88785e-10 8.96724e-05)
    Orientation: (1 0 2.16426e-11 0 1 0 -2.16426e-11 0 1)
    Linear velocity: (0.000534729 -3.03226e-06 0.125599)
    Angular velocity: (0 -8.72487e-08 0)
smoothSolver:  Solving for alpha.water, Initial residual = 2.7489e-06, Final residual = 6.7359e-11, No Iterations 1
Phase-1 volume fraction = 0.0392193  Min(alpha.water) = -7.31309e-28  Max(alpha.water) = 1.00015
MULES: Correcting alpha.water
MULES: Correcting alpha.water
Phase-1 volume fraction = 0.0392193  Min(alpha.water) = -3.82441e-26  Max(alpha.water) = 1.00015
GAMG:  Solving for p_rgh, Initial residual = 0.00143412, Final residual = 1.07315e-05, No Iterations 2
GAMG:  Solving for p_rgh, Initial residual = 1.16804e-05, Final residual = 5.18973e-07, No Iterations 3
time step continuity errors : sum local = 2.63363e-09, global = 2.54062e-11, cumulative = -2.60211e-09
GAMG:  Solving for p_rgh, Initial residual = 2.69365e-06, Final residual = 2.99703e-07, No Iterations 1
GAMG:  Solving for p_rgh, Initial residual = 3.19431e-07, Final residual = 3.19431e-07, No Iterations 0
time step continuity errors : sum local = 1.61194e-09, global = 2.65614e-11, cumulative = -2.57555e-09
GAMG:  Solving for p_rgh, Initial residual = 3.18459e-07, Final residual = 3.18459e-07, No Iterations 0
GAMG:  Solving for p_rgh, Initial residual = 3.18459e-07, Final residual = 3.18459e-07, No Iterations 0
time step continuity errors : sum local = 1.60703e-09, global = 2.65613e-11, cumulative = -2.54898e-09
ExecutionTime = 1.83 s  ClockTime = 1 s

fieldMinMax fieldMinMax1 write:
    min(mag(U)) = 0 in cell 43 at location (-0.0115485 0.00478355 0.33125) on processor 0
    max(mag(U)) = 0.327881 in cell 2290 at location (0.16256 0.137006 0.131953) on processor 11

forces forces1 write:
    Sum of forces
        Total    : (0.075208 9.68112e-05 1.08517)
        Pressure : (0.0752075 9.68063e-05 1.08467)
        Viscous  : (5.585e-07 4.85875e-09 0.000494269)
    Sum of moments
        Total    : (-3.39474e-05 0.0241838 -6.39956e-09)
        Pressure : (-3.39458e-05 0.0241837 -6.39174e-09)
        Viscous  : (-1.60331e-09 1.87527e-07 -7.8246e-12)
    writing force and moment files.

Courant Number mean: 0.00039959 max: 0.0399155
Interface Courant Number mean: 1.2274e-06 max: 0.00361789
deltaT = 0.000214287
Time = 0.000928242

PIMPLE: iteration 1
forces forces:
    rho: rho
    Not including porosity effects

Solver_ running
 Applying restraint to: 
Modified forward dynamics running
qDdot[0]=0.788755
qDdot[2]=-0.00459799
forces forces:
    rho: rho
    Not including porosity effects

Solver_ running
 Applying restraint to: 
Modified forward dynamics running
qDdot[0]=0.788755
qDdot[2]=-0.00459799
forces forces:
    rho: rho
    Not including porosity effects

Solver_ running
 Applying restraint to: 
Modified forward dynamics running
qDdot[0]=0.788755
qDdot[2]=-0.00459799
forces forces:
    rho: rho
    Not including porosity effects

Solver_ running
 Applying restraint to: 
Modified forward dynamics running
qDdot[0]=0.788755
qDdot[2]=-0.00459799
forces forces:
    rho: rho
    Not including porosity effects

Solver_ running
 Applying restraint to: 
Modified forward dynamics running
qDdot[0]=0.788755
qDdot[2]=-0.00459799
forces forces:
    rho: rho
    Not including porosity effects

Solver_ running
 Applying restraint to: 
Modified forward dynamics running
qDdot[0]=0.788755
qDdot[2]=-0.00459799
forces forces:
    rho: rho
    Not including porosity effects

Solver_ running
 Applying restraint to: 
Modified forward dynamics running
qDdot[0]=0.788755
qDdot[2]=-0.00459799
forces forces:
    rho: rho
    Not including porosity effects

Solver_ running
 Applying restraint to: 
Modified forward dynamics running
qDdot[0]=0.788755
qDdot[2]=-0.00459799
forces forces:
    rho: rho
    Not including porosity effects

Solver_ running
 Applying restraint to: 
Modified forward dynamics running
qDdot[0]=0.788755
qDdot[2]=-0.00459799
forces forces:
    rho: rho
    Not including porosity effects

Solver_ running
 Applying restraint to: 
Modified forward dynamics running
qDdot[0]=0.788755
qDdot[2]=-0.00459799
forces forces:
    rho: rho
    Not including porosity effects

Solver_ running
 Applying restraint to: 
Modified forward dynamics running
qDdot[0]=0.788755
qDdot[2]=-0.00459799
forces forces:
    rho: rho
    Not including porosity effects

Solver_ running
 Applying restraint to: 
Modified forward dynamics running
qDdot[0]=0.788755
qDdot[2]=-0.00459799
Rigid-body motion of the movingWalls
    Centre of rotation: (3.14462e-07 -2.49268e-09 0.000116587)
    Orientation: (1 0 4.44466e-11 0 1 0 -4.44466e-11 0 1)
    Linear velocity: (0.000703749 -1.19373e-05 0.125598)
    Angular velocity: (0 -1.25588e-07 0)
smoothSolver:  Solving for alpha.water, Initial residual = 3.30019e-06, Final residual = 9.84078e-11, No Iterations 1
Phase-1 volume fraction = 0.0392193  Min(alpha.water) = -7.02022e-28  Max(alpha.water) = 1.00015
MULES: Correcting alpha.water
MULES: Correcting alpha.water
Phase-1 volume fraction = 0.0392193  Min(alpha.water) = -9.40664e-26  Max(alpha.water) = 1.00015
GAMG:  Solving for p_rgh, Initial residual = 0.00171932, Final residual = 1.16062e-05, No Iterations 2
GAMG:  Solving for p_rgh, Initial residual = 1.23879e-05, Final residual = 4.724e-07, No Iterations 3
time step continuity errors : sum local = 3.30065e-09, global = -3.21455e-11, cumulative = -2.58113e-09
GAMG:  Solving for p_rgh, Initial residual = 2.23977e-06, Final residual = 2.39906e-07, No Iterations 1
GAMG:  Solving for p_rgh, Initial residual = 2.6657e-07, Final residual = 2.6657e-07, No Iterations 0
time step continuity errors : sum local = 1.85581e-09, global = -7.02556e-12, cumulative = -2.58816e-09
GAMG:  Solving for p_rgh, Initial residual = 2.65701e-07, Final residual = 2.65701e-07, No Iterations 0
GAMG:  Solving for p_rgh, Initial residual = 2.65701e-07, Final residual = 2.65701e-07, No Iterations 0
time step continuity errors : sum local = 1.84976e-09, global = -7.02564e-12, cumulative = -2.59518e-09
ExecutionTime = 2.09 s  ClockTime = 2 s

fieldMinMax fieldMinMax1 write:
    min(mag(U)) = 0 in cell 43 at location (-0.0115485 0.00478355 0.33125) on processor 0
    max(mag(U)) = 0.329475 in cell 2290 at location (0.16256 0.137006 0.13198) on processor 11

forces forces1 write:
    Sum of forces
        Total    : (0.0749924 -0.00383566 1.06023)
        Pressure : (0.0749916 -0.00383565 1.05974)
        Viscous  : (7.46092e-07 -4.83975e-09 0.000495079)
    Sum of moments
        Total    : (0.0012326 0.0241162 -6.36119e-09)
        Pressure : (0.0012326 0.024116 -6.35428e-09)
        Viscous  : (1.66228e-09 2.50524e-07 -6.91562e-12)
    writing force and moment files.

Courant Number mean: 0.000479655 max: 0.0477415
Interface Courant Number mean: 1.66542e-06 max: 0.00434733
deltaT = 0.00025692
Time = 0.00118516

PIMPLE: iteration 1
forces forces:
    rho: rho
    Not including porosity effects

Solver_ running
 Applying restraint to: 
Modified forward dynamics running
qDdot[0]=0.788746
qDdot[2]=-0.0058706
forces forces:
    rho: rho
    Not including porosity effects

Solver_ running
 Applying restraint to: 
Modified forward dynamics running
qDdot[0]=0.788746
qDdot[2]=-0.0058706
forces forces:
    rho: rho
    Not including porosity effects

Solver_ running
 Applying restraint to: 
Modified forward dynamics running
qDdot[0]=0.788746
qDdot[2]=-0.0058706
forces forces:
    rho: rho
    Not including porosity effects

Solver_ running
 Applying restraint to: 
Modified forward dynamics running
qDdot[0]=0.788746
qDdot[2]=-0.0058706
forces forces:
    rho: rho
    Not including porosity effects

Solver_ running
 Applying restraint to: 
Modified forward dynamics running
qDdot[0]=0.788746
qDdot[2]=-0.0058706
forces forces:
    rho: rho
    Not including porosity effects

Solver_ running
 Applying restraint to: 
Modified forward dynamics running
qDdot[0]=0.788746
qDdot[2]=-0.0058706
forces forces:
    rho: rho
    Not including porosity effects

Solver_ running
 Applying restraint to: 
Modified forward dynamics running
qDdot[0]=0.788746
qDdot[2]=-0.0058706
forces forces:
    rho: rho
    Not including porosity effects

Solver_ running
 Applying restraint to: 
Modified forward dynamics running
qDdot[0]=0.788746
qDdot[2]=-0.0058706
forces forces:
    rho: rho
    Not including porosity effects

Solver_ running
 Applying restraint to: 
Modified forward dynamics running
qDdot[0]=0.788746
qDdot[2]=-0.0058706
forces forces:
    rho: rho
    Not including porosity effects

Solver_ running
 Applying restraint to: 
Modified forward dynamics running
qDdot[0]=0.788746
qDdot[2]=-0.0058706
forces forces:
    rho: rho
    Not including porosity effects

Solver_ running
 Applying restraint to: 
Modified forward dynamics running
qDdot[0]=0.788746
qDdot[2]=-0.0058706
forces forces:
    rho: rho
    Not including porosity effects

Solver_ running
 Applying restraint to: 
Modified forward dynamics running
qDdot[0]=0.788746
qDdot[2]=-0.0058706
Rigid-body motion of the movingWalls
    Centre of rotation: (5.21301e-07 -3.98798e-09 0.000148855)
    Orientation: (1 0 8.26166e-11 0 1 0 -8.26166e-11 0 1)
    Linear velocity: (0.000906395 2.97181e-07 0.125597)
    Angular velocity: (0 -1.71547e-07 0)
smoothSolver:  Solving for alpha.water, Initial residual = 3.95943e-06, Final residual = 1.44228e-10, No Iterations 1
Phase-1 volume fraction = 0.0392193  Min(alpha.water) = -7.5157e-28  Max(alpha.water) = 1.00015
MULES: Correcting alpha.water
MULES: Correcting alpha.water
Phase-1 volume fraction = 0.0392193  Min(alpha.water) = -1.08814e-25  Max(alpha.water) = 1.00015
GAMG:  Solving for p_rgh, Initial residual = 0.00206877, Final residual = 1.30137e-05, No Iterations 2
GAMG:  Solving for p_rgh, Initial residual = 1.37574e-05, Final residual = 5.14453e-07, No Iterations 3
time step continuity errors : sum local = 4.97591e-09, global = -1.4352e-10, cumulative = -2.7387e-09
GAMG:  Solving for p_rgh, Initial residual = 2.04152e-06, Final residual = 2.41002e-07, No Iterations 1
GAMG:  Solving for p_rgh, Initial residual = 2.78817e-07, Final residual = 2.78817e-07, No Iterations 0
time step continuity errors : sum local = 2.69006e-09, global = -9.67766e-11, cumulative = -2.83548e-09
GAMG:  Solving for p_rgh, Initial residual = 2.78316e-07, Final residual = 2.78316e-07, No Iterations 0
GAMG:  Solving for p_rgh, Initial residual = 2.78316e-07, Final residual = 2.78316e-07, No Iterations 0
time step continuity errors : sum local = 2.68523e-09, global = -9.67765e-11, cumulative = -2.93225e-09
ExecutionTime = 2.49 s  ClockTime = 2 s

fieldMinMax fieldMinMax1 write:
    min(mag(U)) = 0 in cell 43 at location (-0.0115485 0.00478355 0.33125) on processor 0
    max(mag(U)) = 0.330855 in cell 2290 at location (0.16256 0.137006 0.132012) on processor 11

forces forces1 write:
    Sum of forces
        Total    : (0.0753339 0.000477723 1.0444)
        Pressure : (0.0753329 0.000477726 1.0439)
        Viscous  : (9.71824e-07 -3.53089e-09 0.000495811)
    Sum of moments
        Total    : (-0.00014815 0.0242254 -6.20487e-09)
        Pressure : (-0.000148151 0.0242251 -6.19797e-09)
        Viscous  : (1.24381e-09 3.26342e-07 -6.89679e-12)
    writing force and moment files.

Courant Number mean: 0.000575328 max: 0.0570499
Interface Courant Number mean: 2.11806e-06 max: 0.00522026
deltaT = 0.000308955
Time = 0.00149412

PIMPLE: iteration 1
forces forces:
    rho: rho
    Not including porosity effects

Solver_ running
 Applying restraint to: 
Modified forward dynamics running
qDdot[0]=0.788733
qDdot[2]=-0.00740094
forces forces:
    rho: rho
    Not including porosity effects

Solver_ running
 Applying restraint to: 
Modified forward dynamics running
qDdot[0]=0.788733
qDdot[2]=-0.00740094
forces forces:
    rho: rho
    Not including porosity effects

Solver_ running
 Applying restraint to: 
Modified forward dynamics running
qDdot[0]=0.788733
qDdot[2]=-0.00740094
forces forces:
    rho: rho
    Not including porosity effects

Solver_ running
 Applying restraint to: 
Modified forward dynamics running
qDdot[0]=0.788733
qDdot[2]=-0.00740094
forces forces:
    rho: rho
    Not including porosity effects

Solver_ running
 Applying restraint to: 
Modified forward dynamics running
qDdot[0]=0.788733
qDdot[2]=-0.00740094
forces forces:
    rho: rho
    Not including porosity effects

Solver_ running
 Applying restraint to: 
Modified forward dynamics running
qDdot[0]=0.788733
qDdot[2]=-0.00740094
forces forces:
    rho: rho
    Not including porosity effects

Solver_ running
 Applying restraint to: 
Modified forward dynamics running
qDdot[0]=0.788733
qDdot[2]=-0.00740094
forces forces:
    rho: rho
    Not including porosity effects

Solver_ running
 Applying restraint to: 
Modified forward dynamics running
qDdot[0]=0.788733
qDdot[2]=-0.00740094
forces forces:
    rho: rho
    Not including porosity effects

Solver_ running
 Applying restraint to: 
Modified forward dynamics running
qDdot[0]=0.788733
qDdot[2]=-0.00740094
forces forces:
    rho: rho
    Not including porosity effects

Solver_ running
 Applying restraint to: 
Modified forward dynamics running
qDdot[0]=0.788733
qDdot[2]=-0.00740094
forces forces:
    rho: rho
    Not including porosity effects

Solver_ running
 Applying restraint to: 
Modified forward dynamics running
qDdot[0]=0.788733
qDdot[2]=-0.00740094
forces forces:
    rho: rho
    Not including porosity effects

Solver_ running
 Applying restraint to: 
Modified forward dynamics running
qDdot[0]=0.788733
qDdot[2]=-0.00740094
Rigid-body motion of the movingWalls
    Centre of rotation: (8.3898e-07 -1.97232e-09 0.000187658)
    Orientation: (1 0 1.44157e-10 0 1 0 -1.44157e-10 0 1)
    Linear velocity: (0.00115008 1.27511e-05 0.125594)
    Angular velocity: (0 -2.26833e-07 0)
smoothSolver:  Solving for alpha.water, Initial residual = 4.7659e-06, Final residual = 2.13857e-10, No Iterations 1
Phase-1 volume fraction = 0.0392193  Min(alpha.water) = -6.66394e-28  Max(alpha.water) = 1.00015
MULES: Correcting alpha.water
MULES: Correcting alpha.water
Phase-1 volume fraction = 0.0392193  Min(alpha.water) = -4.13333e-24  Max(alpha.water) = 1.00015
GAMG:  Solving for p_rgh, Initial residual = 0.00250294, Final residual = 1.49725e-05, No Iterations 2
GAMG:  Solving for p_rgh, Initial residual = 1.56857e-05, Final residual = 6.25146e-07, No Iterations 3
time step continuity errors : sum local = 8.45889e-09, global = -3.86013e-10, cumulative = -3.31827e-09
GAMG:  Solving for p_rgh, Initial residual = 1.98254e-06, Final residual = 2.8198e-07, No Iterations 1
GAMG:  Solving for p_rgh, Initial residual = 3.31227e-07, Final residual = 3.31227e-07, No Iterations 0
time step continuity errors : sum local = 4.47381e-09, global = -2.78904e-10, cumulative = -3.59717e-09
GAMG:  Solving for p_rgh, Initial residual = 3.30976e-07, Final residual = 3.30976e-07, No Iterations 0
GAMG:  Solving for p_rgh, Initial residual = 3.30976e-07, Final residual = 3.30976e-07, No Iterations 0
time step continuity errors : sum local = 4.47041e-09, global = -2.78904e-10, cumulative = -3.87608e-09
ExecutionTime = 2.73 s  ClockTime = 2 s

fieldMinMax fieldMinMax1 write:
    min(mag(U)) = 0 in cell 43 at location (-0.0115485 0.00478355 0.33125) on processor 0
    max(mag(U)) = 0.332031 in cell 2290 at location (0.162561 0.137006 0.132051) on processor 11

forces forces1 write:
    Sum of forces
        Total    : (0.0756508 0.00405999 1.03388)
        Pressure : (0.0756495 0.00405998 1.03338)
        Viscous  : (1.24474e-06 1.11362e-08 0.000496495)
    Sum of moments
        Total    : (-0.00130197 0.0243287 -6.17272e-09)
        Pressure : (-0.00130197 0.0243283 -6.16581e-09)
        Viscous  : (-3.67074e-09 4.18018e-07 -6.91222e-12)
    writing force and moment files.

Courant Number mean: 0.000692242 max: 0.0683682
Interface Courant Number mean: 2.63838e-06 max: 0.00628859
deltaT = 0.000370274
Time = 0.00186439

PIMPLE: iteration 1
forces forces:
    rho: rho
    Not including porosity effects

Solver_ running
 Applying restraint to: 
Modified forward dynamics running
qDdot[0]=0.788714
qDdot[2]=-0.00923498
forces forces:
    rho: rho
    Not including porosity effects

Solver_ running
 Applying restraint to: 
Modified forward dynamics running
qDdot[0]=0.788714
qDdot[2]=-0.00923498
forces forces:
    rho: rho
    Not including porosity effects

Solver_ running
 Applying restraint to: 
Modified forward dynamics running
qDdot[0]=0.788714
qDdot[2]=-0.00923498
forces forces:
    rho: rho
    Not including porosity effects

Solver_ running
 Applying restraint to: 
Modified forward dynamics running
qDdot[0]=0.788714
qDdot[2]=-0.00923498
forces forces:
    rho: rho
    Not including porosity effects

Solver_ running
 Applying restraint to: 
Modified forward dynamics running
qDdot[0]=0.788714
qDdot[2]=-0.00923498
forces forces:
    rho: rho
    Not including porosity effects

Solver_ running
 Applying restraint to: 
Modified forward dynamics running
qDdot[0]=0.788714
qDdot[2]=-0.00923498
forces forces:
    rho: rho
    Not including porosity effects

Solver_ running
 Applying restraint to: 
Modified forward dynamics running
qDdot[0]=0.788714
qDdot[2]=-0.00923498
forces forces:
    rho: rho
    Not including porosity effects

Solver_ running
 Applying restraint to: 
Modified forward dynamics running
qDdot[0]=0.788714
qDdot[2]=-0.00923498
forces forces:
    rho: rho
    Not including porosity effects

Solver_ running
 Applying restraint to: 
Modified forward dynamics running
qDdot[0]=0.788714
qDdot[2]=-0.00923498
forces forces:
    rho: rho
    Not including porosity effects

Solver_ running
 Applying restraint to: 
Modified forward dynamics running
qDdot[0]=0.788714
qDdot[2]=-0.00923498
forces forces:
    rho: rho
    Not including porosity effects

Solver_ running
 Applying restraint to: 
Modified forward dynamics running
qDdot[0]=0.788714
qDdot[2]=-0.00923498
forces forces:
    rho: rho
    Not including porosity effects

Solver_ running
 Applying restraint to: 
Modified forward dynamics running
qDdot[0]=0.788714
qDdot[2]=-0.00923498
Rigid-body motion of the movingWalls
    Centre of rotation: (1.31889e-06 -1.21901e-09 0.000234162)
    Orientation: (1 0 2.40427e-10 0 1 0 -2.40427e-10 0 1)
    Linear velocity: (0.00144212 -8.68219e-06 0.125591)
    Angular velocity: (0 -2.93157e-07 0)
smoothSolver:  Solving for alpha.water, Initial residual = 5.71875e-06, Final residual = 3.16675e-10, No Iterations 1
Phase-1 volume fraction = 0.0392193  Min(alpha.water) = -7.29061e-28  Max(alpha.water) = 1.00015
MULES: Correcting alpha.water
MULES: Correcting alpha.water
Phase-1 volume fraction = 0.0392193  Min(alpha.water) = -3.7196e-24  Max(alpha.water) = 1.00015
GAMG:  Solving for p_rgh, Initial residual = 0.0030091, Final residual = 1.71949e-05, No Iterations 2
GAMG:  Solving for p_rgh, Initial residual = 1.79292e-05, Final residual = 8.18152e-07, No Iterations 3
time step continuity errors : sum local = 1.55057e-08, global = -7.54357e-10, cumulative = -4.63043e-09
GAMG:  Solving for p_rgh, Initial residual = 2.13172e-06, Final residual = 3.60883e-07, No Iterations 1
GAMG:  Solving for p_rgh, Initial residual = 4.29023e-07, Final residual = 4.29023e-07, No Iterations 0
time step continuity errors : sum local = 8.12055e-09, global = -5.3935e-10, cumulative = -5.16978e-09
GAMG:  Solving for p_rgh, Initial residual = 4.28909e-07, Final residual = 4.28909e-07, No Iterations 0
GAMG:  Solving for p_rgh, Initial residual = 4.28909e-07, Final residual = 4.28909e-07, No Iterations 0
time step continuity errors : sum local = 8.11839e-09, global = -5.39348e-10, cumulative = -5.70913e-09
ExecutionTime = 3 s  ClockTime = 3 s

fieldMinMax fieldMinMax1 write:
    min(mag(U)) = 0 in cell 43 at location (-0.0115485 0.00478355 0.33125) on processor 0
    max(mag(U)) = 0.332958 in cell 2290 at location (0.162561 0.137006 0.132097) on processor 11

forces forces1 write:
    Sum of forces
        Total    : (0.0759004 -0.000855651 1.02675)
        Pressure : (0.0758988 -0.000855659 1.02625)
        Viscous  : (1.57301e-06 7.75491e-09 0.000497152)
    Sum of moments
        Total    : (0.000270314 0.0244043 -6.30736e-09)
        Pressure : (0.000270316 0.0244038 -6.30082e-09)
        Viscous  : (-2.58257e-09 5.28333e-07 -6.54037e-12)
    writing force and moment files.

Courant Number mean: 0.000830248 max: 0.0816416
Interface Courant Number mean: 3.24303e-06 max: 0.00755267
deltaT = 0.0004457
Time = 0.00231009

PIMPLE: iteration 1
forces forces:
    rho: rho
    Not including porosity effects

Solver_ running
 Applying restraint to: 
Modified forward dynamics running
qDdot[0]=0.788685
qDdot[2]=-0.0114425
forces forces:
    rho: rho
    Not including porosity effects

Solver_ running
 Applying restraint to: 
Modified forward dynamics running
qDdot[0]=0.788685
qDdot[2]=-0.0114425
forces forces:
    rho: rho
    Not including porosity effects

Solver_ running
 Applying restraint to: 
Modified forward dynamics running
qDdot[0]=0.788685
qDdot[2]=-0.0114425
forces forces:
    rho: rho
    Not including porosity effects

Solver_ running
 Applying restraint to: 
Modified forward dynamics running
qDdot[0]=0.788685
qDdot[2]=-0.0114425
forces forces:
    rho: rho
    Not including porosity effects

Solver_ running
 Applying restraint to: 
Modified forward dynamics running
qDdot[0]=0.788685
qDdot[2]=-0.0114425
forces forces:
    rho: rho
    Not including porosity effects

Solver_ running
 Applying restraint to: 
Modified forward dynamics running
qDdot[0]=0.788685
qDdot[2]=-0.0114425
forces forces:
    rho: rho
    Not including porosity effects

Solver_ running
 Applying restraint to: 
Modified forward dynamics running
qDdot[0]=0.788685
qDdot[2]=-0.0114425
forces forces:
    rho: rho
    Not including porosity effects

Solver_ running
 Applying restraint to: 
Modified forward dynamics running
qDdot[0]=0.788685
qDdot[2]=-0.0114425
forces forces:
    rho: rho
    Not including porosity effects

Solver_ running
 Applying restraint to: 
Modified forward dynamics running
qDdot[0]=0.788685
qDdot[2]=-0.0114425
forces forces:
    rho: rho
    Not including porosity effects

Solver_ running
 Applying restraint to: 
Modified forward dynamics running
qDdot[0]=0.788685
qDdot[2]=-0.0114425
forces forces:
    rho: rho
    Not including porosity effects

Solver_ running
 Applying restraint to: 
Modified forward dynamics running
qDdot[0]=0.788685
qDdot[2]=-0.0114425
forces forces:
    rho: rho
    Not including porosity effects

Solver_ running
 Applying restraint to: 
Modified forward dynamics running
qDdot[0]=0.788685
qDdot[2]=-0.0114425
Rigid-body motion of the movingWalls
    Centre of rotation: (2.03998e-06 -8.91091e-09 0.000290137)
    Orientation: (1 0 3.88901e-10 0 1 0 -3.88901e-10 0 1)
    Linear velocity: (0.00179365 -2.58338e-05 0.125587)
    Angular velocity: (0 -3.73094e-07 0)
smoothSolver:  Solving for alpha.water, Initial residual = 6.89431e-06, Final residual = 4.76336e-10, No Iterations 1
Phase-1 volume fraction = 0.0392193  Min(alpha.water) = -7.28242e-28  Max(alpha.water) = 1.00015
MULES: Correcting alpha.water
MULES: Correcting alpha.water
Phase-1 volume fraction = 0.0392193  Min(alpha.water) = -3.98063e-19  Max(alpha.water) = 1.00015
GAMG:  Solving for p_rgh, Initial residual = 0.00360682, Final residual = 1.97993e-05, No Iterations 2
GAMG:  Solving for p_rgh, Initial residual = 2.07054e-05, Final residual = 4.69711e-07, No Iterations 4
time step continuity errors : sum local = 1.26568e-08, global = -8.99951e-10, cumulative = -6.60908e-09
GAMG:  Solving for p_rgh, Initial residual = 2.01454e-06, Final residual = 2.55373e-07, No Iterations 1
GAMG:  Solving for p_rgh, Initial residual = 3.03345e-07, Final residual = 3.03345e-07, No Iterations 0
time step continuity errors : sum local = 8.16509e-09, global = -7.90461e-10, cumulative = -7.39954e-09
GAMG:  Solving for p_rgh, Initial residual = 3.04451e-07, Final residual = 3.04451e-07, No Iterations 0
GAMG:  Solving for p_rgh, Initial residual = 3.04451e-07, Final residual = 3.04451e-07, No Iterations 0
time step continuity errors : sum local = 8.19486e-09, global = -7.90462e-10, cumulative = -8.19e-09
ExecutionTime = 3.43 s  ClockTime = 3 s

fieldMinMax fieldMinMax1 write:
    min(mag(U)) = 0 in cell 43 at location (-0.0115485 0.00478355 0.33125) on processor 0
    max(mag(U)) = 0.333631 in cell 2290 at location (0.162562 0.137006 0.132153) on processor 11

forces forces1 write:
    Sum of forces
        Total    : (0.0759056 -0.00455687 1.02139)
        Pressure : (0.0759037 -0.00455686 1.02089)
        Viscous  : (1.96749e-06 -1.59341e-08 0.000497796)
    Sum of moments
        Total    : (0.0014648 0.0244088 -6.39513e-09)
        Pressure : (0.0014648 0.0244081 -6.38892e-09)
        Viscous  : (5.35798e-09 6.60887e-07 -6.21101e-12)
    writing force and moment files.

Courant Number mean: 0.00100036 max: 0.0978984
Interface Courant Number mean: 3.97455e-06 max: 0.00911467
deltaT = 0.000535842
Time = 0.00284593

PIMPLE: iteration 1
forces forces:
    rho: rho
    Not including porosity effects

Solver_ running
 Applying restraint to: 
Modified forward dynamics running
qDdot[0]=0.788642
qDdot[2]=-0.0140965
forces forces:
    rho: rho
    Not including porosity effects

Solver_ running
 Applying restraint to: 
Modified forward dynamics running
qDdot[0]=0.788642
qDdot[2]=-0.0140965
forces forces:
    rho: rho
    Not including porosity effects

Solver_ running
 Applying restraint to: 
Modified forward dynamics running
qDdot[0]=0.788642
qDdot[2]=-0.0140965
forces forces:
    rho: rho
    Not including porosity effects

Solver_ running
 Applying restraint to: 
Modified forward dynamics running
qDdot[0]=0.788642
qDdot[2]=-0.0140965
forces forces:
    rho: rho
    Not including porosity effects

Solver_ running
 Applying restraint to: 
Modified forward dynamics running
qDdot[0]=0.788642
qDdot[2]=-0.0140965
forces forces:
    rho: rho
    Not including porosity effects

Solver_ running
 Applying restraint to: 
Modified forward dynamics running
qDdot[0]=0.788642
qDdot[2]=-0.0140965
forces forces:
    rho: rho
    Not including porosity effects

Solver_ running
 Applying restraint to: 
Modified forward dynamics running
qDdot[0]=0.788642
qDdot[2]=-0.0140965
forces forces:
    rho: rho
    Not including porosity effects

Solver_ running
 Applying restraint to: 
Modified forward dynamics running
qDdot[0]=0.788642
qDdot[2]=-0.0140965
forces forces:
    rho: rho
    Not including porosity effects

Solver_ running
 Applying restraint to: 
Modified forward dynamics running
qDdot[0]=0.788642
qDdot[2]=-0.0140965
forces forces:
    rho: rho
    Not including porosity effects

Solver_ running
 Applying restraint to: 
Modified forward dynamics running
qDdot[0]=0.788642
qDdot[2]=-0.0140965
forces forces:
    rho: rho
    Not including porosity effects

Solver_ running
 Applying restraint to: 
Modified forward dynamics running
qDdot[0]=0.788642
qDdot[2]=-0.0140965
forces forces:
    rho: rho
    Not including porosity effects

Solver_ running
 Applying restraint to: 
Modified forward dynamics running
qDdot[0]=0.788642
qDdot[2]=-0.0140965
Rigid-body motion of the movingWalls
    Centre of rotation: (3.11432e-06 -1.29169e-08 0.00035743)
    Orientation: (1 0 6.14566e-10 0 1 0 -6.14566e-10 0 1)
    Linear velocity: (0.00221625 1.08817e-05 0.12558)
    Angular velocity: (0 -4.6919e-07 0)
smoothSolver:  Solving for alpha.water, Initial residual = 8.30393e-06, Final residual = 7.19441e-10, No Iterations 1
Phase-1 volume fraction = 0.0392193  Min(alpha.water) = -2.58483e-27  Max(alpha.water) = 1.00015
MULES: Correcting alpha.water
MULES: Correcting alpha.water
Phase-1 volume fraction = 0.0392193  Min(alpha.water) = -8.2122e-18  Max(alpha.water) = 1.00015
GAMG:  Solving for p_rgh, Initial residual = 0.00428267, Final residual = 2.27602e-05, No Iterations 2
GAMG:  Solving for p_rgh, Initial residual = 2.41132e-05, Final residual = 6.37232e-07, No Iterations 4
time step continuity errors : sum local = 2.44438e-08, global = -2.38823e-09, cumulative = -1.05782e-08
GAMG:  Solving for p_rgh, Initial residual = 2.37806e-06, Final residual = 3.54847e-07, No Iterations 1
GAMG:  Solving for p_rgh, Initial residual = 4.26256e-07, Final residual = 4.26256e-07, No Iterations 0
time step continuity errors : sum local = 1.63392e-08, global = -2.01171e-09, cumulative = -1.259e-08
GAMG:  Solving for p_rgh, Initial residual = 4.27919e-07, Final residual = 4.27919e-07, No Iterations 0
GAMG:  Solving for p_rgh, Initial residual = 4.27919e-07, Final residual = 4.27919e-07, No Iterations 0
time step continuity errors : sum local = 1.6403e-08, global = -2.01171e-09, cumulative = -1.46017e-08
ExecutionTime = 3.7 s  ClockTime = 3 s

fieldMinMax fieldMinMax1 write:
    min(mag(U)) = 0 in cell 43 at location (-0.0115485 0.00478355 0.33125) on processor 0
    max(mag(U)) = 0.334041 in cell 2290 at location (0.162563 0.137006 0.13222) on processor 11

forces forces1 write:
    Sum of forces
        Total    : (0.0759739 0.001496 1.01819)
        Pressure : (0.0759715 0.001496 1.01769)
        Viscous  : (2.44347e-06 -6.33433e-09 0.000498458)
    Sum of moments
        Total    : (-0.000476203 0.0244321 -6.56154e-09)
        Pressure : (-0.000476205 0.0244312 -6.55506e-09)
        Viscous  : (2.12167e-09 8.20895e-07 -6.48335e-12)
    writing force and moment files.

Courant Number mean: 0.00120412 max: 0.117224
Interface Courant Number mean: 4.84402e-06 max: 0.010992
deltaT = 0.000645946
Time = 0.00349188

PIMPLE: iteration 1
forces forces:
    rho: rho
    Not including porosity effects

Solver_ running
 Applying restraint to: 
Modified forward dynamics running
qDdot[0]=0.788578
qDdot[2]=-0.0172955
forces forces:
    rho: rho
    Not including porosity effects

Solver_ running
 Applying restraint to: 
Modified forward dynamics running
qDdot[0]=0.788578
qDdot[2]=-0.0172955
forces forces:
    rho: rho
    Not including porosity effects

Solver_ running
 Applying restraint to: 
Modified forward dynamics running
qDdot[0]=0.788578
qDdot[2]=-0.0172955
forces forces:
    rho: rho
    Not including porosity effects

Solver_ running
 Applying restraint to: 
Modified forward dynamics running
qDdot[0]=0.788578
qDdot[2]=-0.0172955
forces forces:
    rho: rho
    Not including porosity effects

Solver_ running
 Applying restraint to: 
Modified forward dynamics running
qDdot[0]=0.788578
qDdot[2]=-0.0172955
forces forces:
    rho: rho
    Not including porosity effects

Solver_ running
 Applying restraint to: 
Modified forward dynamics running
qDdot[0]=0.788578
qDdot[2]=-0.0172955
forces forces:
    rho: rho
    Not including porosity effects

Solver_ running
 Applying restraint to: 
Modified forward dynamics running
qDdot[0]=0.788578
qDdot[2]=-0.0172955
forces forces:
    rho: rho
    Not including porosity effects

Solver_ running
 Applying restraint to: 
Modified forward dynamics running
qDdot[0]=0.788578
qDdot[2]=-0.0172955
forces forces:
    rho: rho
    Not including porosity effects

Solver_ running
 Applying restraint to: 
Modified forward dynamics running
qDdot[0]=0.788578
qDdot[2]=-0.0172955
forces forces:
    rho: rho
    Not including porosity effects

Solver_ running
 Applying restraint to: 
Modified forward dynamics running
qDdot[0]=0.788578
qDdot[2]=-0.0172955
forces forces:
    rho: rho
    Not including porosity effects

Solver_ running
 Applying restraint to: 
Modified forward dynamics running
qDdot[0]=0.788578
qDdot[2]=-0.0172955
forces forces:
    rho: rho
    Not including porosity effects

Solver_ running
 Applying restraint to: 
Modified forward dynamics running
qDdot[0]=0.788578
qDdot[2]=-0.0172955
Rigid-body motion of the movingWalls
    Centre of rotation: (4.71042e-06 1.56136e-09 0.000438545)
    Orientation: (1 0 9.55022e-10 0 1 0 -9.55022e-10 0 1)
    Linear velocity: (0.00272565 3.39463e-05 0.12557)
    Angular velocity: (0 -5.84939e-07 0)
smoothSolver:  Solving for alpha.water, Initial residual = 1.00341e-05, Final residual = 1.10155e-09, No Iterations 1
Phase-1 volume fraction = 0.0392193  Min(alpha.water) = -1.76369e-26  Max(alpha.water) = 1.00015
MULES: Correcting alpha.water
MULES: Correcting alpha.water
Phase-1 volume fraction = 0.0392193  Min(alpha.water) = -3.83479e-17  Max(alpha.water) = 1.00015
GAMG:  Solving for p_rgh, Initial residual = 0.00502922, Final residual = 2.61589e-05, No Iterations 2
GAMG:  Solving for p_rgh, Initial residual = 2.77655e-05, Final residual = 8.29276e-07, No Iterations 4
time step continuity errors : sum local = 4.56923e-08, global = -5.32308e-09, cumulative = -1.99247e-08
GAMG:  Solving for p_rgh, Initial residual = 2.51915e-06, Final residual = 4.56395e-07, No Iterations 1
GAMG:  Solving for p_rgh, Initial residual = 5.66723e-07, Final residual = 5.66723e-07, No Iterations 0
time step continuity errors : sum local = 3.12047e-08, global = -4.08972e-09, cumulative = -2.40145e-08
GAMG:  Solving for p_rgh, Initial residual = 5.69295e-07, Final residual = 5.69295e-07, No Iterations 0
GAMG:  Solving for p_rgh, Initial residual = 5.69295e-07, Final residual = 5.69295e-07, No Iterations 0
time step continuity errors : sum local = 3.13463e-08, global = -4.08971e-09, cumulative = -2.81042e-08
ExecutionTime = 4.13 s  ClockTime = 4 s

fieldMinMax fieldMinMax1 write:
    min(mag(U)) = 0 in cell 43 at location (-0.0115485 0.00478355 0.33125) on processor 0
    max(mag(U)) = 0.334105 in cell 2290 at location (0.162564 0.137006 0.132302) on processor 11

forces forces1 write:
    Sum of forces
        Total    : (0.0760335 0.00485729 1.01593)
        Pressure : (0.0760304 0.00485726 1.01543)
        Viscous  : (3.01834e-06 3.05178e-08 0.000499156)
    Sum of moments
        Total    : (-0.00156094 0.0244552 -6.05912e-09)
        Pressure : (-0.00156093 0.0244541 -6.05337e-09)
        Viscous  : (-1.02686e-08 1.01423e-06 -5.75114e-12)
    writing force and moment files.

Courant Number mean: 0.00145378 max: 0.140714
Interface Courant Number mean: 5.91559e-06 max: 0.0133011
deltaT = 0.000775135
Time = 0.00426701

PIMPLE: iteration 1
forces forces:
    rho: rho
    Not including porosity effects

Solver_ running
 Applying restraint to: 
Modified forward dynamics running
qDdot[0]=0.788485
qDdot[2]=-0.021134
forces forces:
    rho: rho
    Not including porosity effects

Solver_ running
 Applying restraint to: 
Modified forward dynamics running
qDdot[0]=0.788485
qDdot[2]=-0.021134
forces forces:
    rho: rho
    Not including porosity effects

Solver_ running
 Applying restraint to: 
Modified forward dynamics running
qDdot[0]=0.788485
qDdot[2]=-0.021134
forces forces:
    rho: rho
    Not including porosity effects

Solver_ running
 Applying restraint to: 
Modified forward dynamics running
qDdot[0]=0.788485
qDdot[2]=-0.021134
forces forces:
    rho: rho
    Not including porosity effects

Solver_ running
 Applying restraint to: 
Modified forward dynamics running
qDdot[0]=0.788485
qDdot[2]=-0.021134
forces forces:
    rho: rho
    Not including porosity effects

Solver_ running
 Applying restraint to: 
Modified forward dynamics running
qDdot[0]=0.788485
qDdot[2]=-0.021134
forces forces:
    rho: rho
    Not including porosity effects

Solver_ running
 Applying restraint to: 
Modified forward dynamics running
qDdot[0]=0.788485
qDdot[2]=-0.021134
forces forces:
    rho: rho
    Not including porosity effects

Solver_ running
 Applying restraint to: 
Modified forward dynamics running
qDdot[0]=0.788485
qDdot[2]=-0.021134
forces forces:
    rho: rho
    Not including porosity effects

Solver_ running
 Applying restraint to: 
Modified forward dynamics running
qDdot[0]=0.788485
qDdot[2]=-0.021134
forces forces:
    rho: rho
    Not including porosity effects

Solver_ running
 Applying restraint to: 
Modified forward dynamics running
qDdot[0]=0.788485
qDdot[2]=-0.021134
forces forces:
    rho: rho
    Not including porosity effects

Solver_ running
 Applying restraint to: 
Modified forward dynamics running
qDdot[0]=0.788485
qDdot[2]=-0.021134
forces forces:
    rho: rho
    Not including porosity effects

Solver_ running
 Applying restraint to: 
Modified forward dynamics running
qDdot[0]=0.788485
qDdot[2]=-0.021134
Rigid-body motion of the movingWalls
    Centre of rotation: (7.06005e-06 3.7327e-09 0.000535872)
    Orientation: (1 0 1.46225e-09 0 1 0 -1.46225e-09 0 1)
    Linear velocity: (0.00333686 -2.83439e-05 0.125555)
    Angular velocity: (0 -7.23806e-07 0)
smoothSolver:  Solving for alpha.water, Initial residual = 1.2076e-05, Final residual = 1.68416e-09, No Iterations 1
Phase-1 volume fraction = 0.0392193  Min(alpha.water) = -6.80037e-26  Max(alpha.water) = 1.00015
MULES: Correcting alpha.water
MULES: Correcting alpha.water
Phase-1 volume fraction = 0.0392193  Min(alpha.water) = -1.48055e-16  Max(alpha.water) = 1.00015
GAMG:  Solving for p_rgh, Initial residual = 0.00575646, Final residual = 2.9994e-05, No Iterations 2
GAMG:  Solving for p_rgh, Initial residual = 3.22591e-05, Final residual = 8.90677e-07, No Iterations 4
time step continuity errors : sum local = 7.00539e-08, global = -6.44738e-09, cumulative = -3.45516e-08
GAMG:  Solving for p_rgh, Initial residual = 2.91075e-06, Final residual = 4.83418e-07, No Iterations 1
GAMG:  Solving for p_rgh, Initial residual = 6.15735e-07, Final residual = 6.15735e-07, No Iterations 0
time step continuity errors : sum local = 4.83916e-08, global = -4.58672e-09, cumulative = -3.91383e-08
GAMG:  Solving for p_rgh, Initial residual = 6.19782e-07, Final residual = 6.19782e-07, No Iterations 0
GAMG:  Solving for p_rgh, Initial residual = 6.19782e-07, Final residual = 6.19782e-07, No Iterations 0
time step continuity errors : sum local = 4.87096e-08, global = -4.58669e-09, cumulative = -4.3725e-08
ExecutionTime = 4.38 s  ClockTime = 4 s

fieldMinMax fieldMinMax1 write:
    min(mag(U)) = 0 in cell 43 at location (-0.0115485 0.00478355 0.33125) on processor 0
    max(mag(U)) = 0.333647 in cell 2290 at location (0.162567 0.137006 0.132399) on processor 11

forces forces1 write:
    Sum of forces
        Total    : (0.0765082 -0.00214994 1.01436)
        Pressure : (0.0765044 -0.00214995 1.01386)
        Viscous  : (3.71226e-06 1.13833e-08 0.000499902)
    Sum of moments
        Total    : (0.000686548 0.0246081 -6.29697e-09)
        Pressure : (0.000686551 0.0246068 -6.29199e-09)
        Viscous  : (-3.89941e-09 1.24767e-06 -4.97902e-12)
    writing force and moment files.

Courant Number mean: 0.00174806 max: 0.168029
Interface Courant Number mean: 7.18406e-06 max: 0.0160378
deltaT = 0.000933326
Time = 0.00520034

PIMPLE: iteration 1
forces forces:
    rho: rho
    Not including porosity effects

Solver_ running
 Applying restraint to: 
Modified forward dynamics running
qDdot[0]=0.788347
qDdot[2]=-0.0257551
forces forces:
    rho: rho
    Not including porosity effects

Solver_ running
 Applying restraint to: 
Modified forward dynamics running
qDdot[0]=0.788347
qDdot[2]=-0.0257551
forces forces:
    rho: rho
    Not including porosity effects

Solver_ running
 Applying restraint to: 
Modified forward dynamics running
qDdot[0]=0.788347
qDdot[2]=-0.0257551
forces forces:
    rho: rho
    Not including porosity effects

Solver_ running
 Applying restraint to: 
Modified forward dynamics running
qDdot[0]=0.788347
qDdot[2]=-0.0257551
forces forces:
    rho: rho
    Not including porosity effects

Solver_ running
 Applying restraint to: 
Modified forward dynamics running
qDdot[0]=0.788347
qDdot[2]=-0.0257551
forces forces:
    rho: rho
    Not including porosity effects

Solver_ running
 Applying restraint to: 
Modified forward dynamics running
qDdot[0]=0.788347
qDdot[2]=-0.0257551
forces forces:
    rho: rho
    Not including porosity effects

Solver_ running
 Applying restraint to: 
Modified forward dynamics running
qDdot[0]=0.788347
qDdot[2]=-0.0257551
forces forces:
    rho: rho
    Not including porosity effects

Solver_ running
 Applying restraint to: 
Modified forward dynamics running
qDdot[0]=0.788347
qDdot[2]=-0.0257551
forces forces:
    rho: rho
    Not including porosity effects

Solver_ running
 Applying restraint to: 
Modified forward dynamics running
qDdot[0]=0.788347
qDdot[2]=-0.0257551
forces forces:
    rho: rho
    Not including porosity effects

Solver_ running
 Applying restraint to: 
Modified forward dynamics running
qDdot[0]=0.788347
qDdot[2]=-0.0257551
forces forces:
    rho: rho
    Not including porosity effects

Solver_ running
 Applying restraint to: 
Modified forward dynamics running
qDdot[0]=0.788347
qDdot[2]=-0.0257551
forces forces:
    rho: rho
    Not including porosity effects

Solver_ running
 Applying restraint to: 
Modified forward dynamics running
qDdot[0]=0.788347
qDdot[2]=-0.0257551
Rigid-body motion of the movingWalls
    Centre of rotation: (1.05178e-05 -3.63389e-08 0.000653046)
    Orientation: (1 0 2.2159e-09 0 1 0 -2.2159e-09 0 1)
    Linear velocity: (0.00407271 -5.75246e-05 0.125533)
    Angular velocity: (0 -8.91175e-07 0)
smoothSolver:  Solving for alpha.water, Initial residual = 1.45932e-05, Final residual = 2.61961e-09, No Iterations 1
Phase-1 volume fraction = 0.0392193  Min(alpha.water) = -8.52982e-25  Max(alpha.water) = 1.00015
MULES: Correcting alpha.water
MULES: Correcting alpha.water
Phase-1 volume fraction = 0.0392193  Min(alpha.water) = -5.09981e-16  Max(alpha.water) = 1.00015
GAMG:  Solving for p_rgh, Initial residual = 0.00641295, Final residual = 3.4024e-05, No Iterations 2
GAMG:  Solving for p_rgh, Initial residual = 3.7279e-05, Final residual = 5.26814e-07, No Iterations 5
time step continuity errors : sum local = 5.96394e-08, global = -5.40613e-09, cumulative = -4.91311e-08
GAMG:  Solving for p_rgh, Initial residual = 2.87618e-06, Final residual = 3.2926e-07, No Iterations 1
GAMG:  Solving for p_rgh, Initial residual = 4.14862e-07, Final residual = 4.14862e-07, No Iterations 0
time step continuity errors : sum local = 4.69269e-08, global = -4.62293e-09, cumulative = -5.3754e-08
GAMG:  Solving for p_rgh, Initial residual = 4.21986e-07, Final residual = 4.21986e-07, No Iterations 0
GAMG:  Solving for p_rgh, Initial residual = 4.21986e-07, Final residual = 4.21986e-07, No Iterations 0
time step continuity errors : sum local = 4.77327e-08, global = -4.62294e-09, cumulative = -5.8377e-08
ExecutionTime = 4.78 s  ClockTime = 4 s

fieldMinMax fieldMinMax1 write:
    min(mag(U)) = 0 in cell 43 at location (-0.0115485 0.00478355 0.33125) on processor 0
    max(mag(U)) = 0.332563 in cell 3125 at location (0.16257 -0.137006 0.132516) on processor 16

forces forces1 write:
    Sum of forces
        Total    : (0.076675 -0.00525281 1.01291)
        Pressure : (0.0766705 -0.00525276 1.01241)
        Viscous  : (4.54923e-06 -4.61784e-08 0.000500697)
    Sum of moments
        Total    : (0.00168986 0.0246633 -6.41868e-09)
        Pressure : (0.00168984 0.0246618 -6.41736e-09)
        Viscous  : (1.54457e-08 1.52931e-06 -1.31571e-12)
    writing force and moment files.

Courant Number mean: 0.00211034 max: 0.201261
Interface Courant Number mean: 8.75996e-06 max: 0.0194282
deltaT = 0.00111999
Time = 0.00632033

PIMPLE: iteration 1
forces forces:
    rho: rho
    Not including porosity effects

Solver_ running
 Applying restraint to: 
Modified forward dynamics running
qDdot[0]=0.788147
qDdot[2]=-0.0312993
forces forces:
    rho: rho
    Not including porosity effects

Solver_ running
 Applying restraint to: 
Modified forward dynamics running
qDdot[0]=0.788147
qDdot[2]=-0.0312993
forces forces:
    rho: rho
    Not including porosity effects

Solver_ running
 Applying restraint to: 
Modified forward dynamics running
qDdot[0]=0.788147
qDdot[2]=-0.0312993
forces forces:
    rho: rho
    Not including porosity effects

Solver_ running
 Applying restraint to: 
Modified forward dynamics running
qDdot[0]=0.788147
qDdot[2]=-0.0312993
forces forces:
    rho: rho
    Not including porosity effects

Solver_ running
 Applying restraint to: 
Modified forward dynamics running
qDdot[0]=0.788147
qDdot[2]=-0.0312993
forces forces:
    rho: rho
    Not including porosity effects

Solver_ running
 Applying restraint to: 
Modified forward dynamics running
qDdot[0]=0.788147
qDdot[2]=-0.0312993
forces forces:
    rho: rho
    Not including porosity effects

Solver_ running
 Applying restraint to: 
Modified forward dynamics running
qDdot[0]=0.788147
qDdot[2]=-0.0312993
forces forces:
    rho: rho
    Not including porosity effects

Solver_ running
 Applying restraint to: 
Modified forward dynamics running
qDdot[0]=0.788147
qDdot[2]=-0.0312993
forces forces:
    rho: rho
    Not including porosity effects

Solver_ running
 Applying restraint to: 
Modified forward dynamics running
qDdot[0]=0.788147
qDdot[2]=-0.0312993
forces forces:
    rho: rho
    Not including porosity effects

Solver_ running
 Applying restraint to: 
Modified forward dynamics running
qDdot[0]=0.788147
qDdot[2]=-0.0312993
forces forces:
    rho: rho
    Not including porosity effects

Solver_ running
 Applying restraint to: 
Modified forward dynamics running
qDdot[0]=0.788147
qDdot[2]=-0.0312993
forces forces:
    rho: rho
    Not including porosity effects

Solver_ running
 Applying restraint to: 
Modified forward dynamics running
qDdot[0]=0.788147
qDdot[2]=-0.0312993
Rigid-body motion of the movingWalls
    Centre of rotation: (1.55736e-05 -4.2534e-08 0.000793624)
    Orientation: (1 0 3.32663e-09 0 1 0 -3.32663e-09 0 1)
    Linear velocity: (0.00495554 4.64619e-05 0.125501)
    Angular velocity: (0 -1.09228e-06 0)
smoothSolver:  Solving for alpha.water, Initial residual = 1.75874e-05, Final residual = 4.08417e-09, No Iterations 1
Phase-1 volume fraction = 0.0392193  Min(alpha.water) = -5.88375e-19  Max(alpha.water) = 1.00015
MULES: Correcting alpha.water
MULES: Correcting alpha.water
Phase-1 volume fraction = 0.0392193  Min(alpha.water) = -1.3202e-15  Max(alpha.water) = 1.00015
GAMG:  Solving for p_rgh, Initial residual = 0.0068461, Final residual = 3.77956e-05, No Iterations 2
GAMG:  Solving for p_rgh, Initial residual = 4.24434e-05, Final residual = 5.14165e-07, No Iterations 5
time step continuity errors : sum local = 8.32452e-08, global = -7.70624e-09, cumulative = -6.60832e-08
GAMG:  Solving for p_rgh, Initial residual = 3.0855e-06, Final residual = 3.32411e-07, No Iterations 1
GAMG:  Solving for p_rgh, Initial residual = 4.28535e-07, Final residual = 4.28535e-07, No Iterations 0
time step continuity errors : sum local = 6.93077e-08, global = -6.43198e-09, cumulative = -7.25152e-08
GAMG:  Solving for p_rgh, Initial residual = 4.38595e-07, Final residual = 4.38595e-07, No Iterations 0
GAMG:  Solving for p_rgh, Initial residual = 4.38595e-07, Final residual = 4.38595e-07, No Iterations 0
time step continuity errors : sum local = 7.09347e-08, global = -6.43196e-09, cumulative = -7.89471e-08
ExecutionTime = 5.24 s  ClockTime = 5 s

fieldMinMax fieldMinMax1 write:
    min(mag(U)) = 0 in cell 43 at location (-0.0115485 0.00478355 0.33125) on processor 0
    max(mag(U)) = 0.330664 in cell 2290 at location (0.162575 0.137006 0.132657) on processor 11

forces forces1 write:
    Sum of forces
        Total    : (0.076772 0.00322332 1.0124)
        Pressure : (0.0767664 0.00322332 1.0119)
        Viscous  : (5.56043e-06 -3.87945e-09 0.000501575)
    Sum of moments
        Total    : (-0.00103385 0.024705 -6.15874e-09)
        Pressure : (-0.00103385 0.0247031 -6.15624e-09)
        Viscous  : (1.19117e-09 1.86972e-06 -2.49705e-12)
    writing force and moment files.

Courant Number mean: 0.00254048 max: 0.240097
Interface Courant Number mean: 1.06719e-05 max: 0.0234854
deltaT = 0.00132363
Time = 0.00764396

PIMPLE: iteration 1
forces forces:
    rho: rho
    Not including porosity effects

Solver_ running
 Applying restraint to: 
Modified forward dynamics running
qDdot[0]=0.787859
qDdot[2]=-0.0378495
forces forces:
    rho: rho
    Not including porosity effects

Solver_ running
 Applying restraint to: 
Modified forward dynamics running
qDdot[0]=0.787859
qDdot[2]=-0.0378495
forces forces:
    rho: rho
    Not including porosity effects

Solver_ running
 Applying restraint to: 
Modified forward dynamics running
qDdot[0]=0.787859
qDdot[2]=-0.0378495
forces forces:
    rho: rho
    Not including porosity effects

Solver_ running
 Applying restraint to: 
Modified forward dynamics running
qDdot[0]=0.787859
qDdot[2]=-0.0378495
forces forces:
    rho: rho
    Not including porosity effects

Solver_ running
 Applying restraint to: 
Modified forward dynamics running
qDdot[0]=0.787859
qDdot[2]=-0.0378495
forces forces:
    rho: rho
    Not including porosity effects

Solver_ running
 Applying restraint to: 
Modified forward dynamics running
qDdot[0]=0.787859
qDdot[2]=-0.0378495
forces forces:
    rho: rho
    Not including porosity effects

Solver_ running
 Applying restraint to: 
Modified forward dynamics running
qDdot[0]=0.787859
qDdot[2]=-0.0378495
forces forces:
    rho: rho
    Not including porosity effects

Solver_ running
 Applying restraint to: 
Modified forward dynamics running
qDdot[0]=0.787859
qDdot[2]=-0.0378495
forces forces:
    rho: rho
    Not including porosity effects

Solver_ running
 Applying restraint to: 
Modified forward dynamics running
qDdot[0]=0.787859
qDdot[2]=-0.0378495
forces forces:
    rho: rho
    Not including porosity effects

Solver_ running
 Applying restraint to: 
Modified forward dynamics running
qDdot[0]=0.787859
qDdot[2]=-0.0378495
forces forces:
    rho: rho
    Not including porosity effects

Solver_ running
 Applying restraint to: 
Modified forward dynamics running
qDdot[0]=0.787859
qDdot[2]=-0.0378495
forces forces:
    rho: rho
    Not including porosity effects

Solver_ running
 Applying restraint to: 
Modified forward dynamics running
qDdot[0]=0.787859
qDdot[2]=-0.0378495
Rigid-body motion of the movingWalls
    Centre of rotation: (2.28232e-05 3.96274e-08 0.00095971)
    Orientation: (1 0 4.92987e-09 0 1 0 -4.92987e-09 0 1)
    Linear velocity: (0.00599857 7.7684e-05 0.125455)
    Angular velocity: (0 -1.33022e-06 0)
smoothSolver:  Solving for alpha.water, Initial residual = 2.08951e-05, Final residual = 6.20965e-09, No Iterations 1
Phase-1 volume fraction = 0.0392193  Min(alpha.water) = -1.8473e-18  Max(alpha.water) = 1.00015
MULES: Correcting alpha.water
MULES: Correcting alpha.water
Phase-1 volume fraction = 0.0392193  Min(alpha.water) = -4.40846e-15  Max(alpha.water) = 1.00015
GAMG:  Solving for p_rgh, Initial residual = 0.00690135, Final residual = 3.9948e-05, No Iterations 2
GAMG:  Solving for p_rgh, Initial residual = 4.66245e-05, Final residual = 5.84622e-07, No Iterations 5
time step continuity errors : sum local = 1.31103e-07, global = -1.21971e-08, cumulative = -9.11443e-08
[...]
forces forces:
    rho: rho
    Not including porosity effects

Solver_ running
 Applying restraint to: 
Modified forward dynamics running
qDdot[0]=0.570696
qDdot[2]=-0.544483
forces forces:
    rho: rho
    Not including porosity effects

Solver_ running
 Applying restraint to: 
Modified forward dynamics running
qDdot[0]=0.570696
qDdot[2]=-0.544483
forces forces:
    rho: rho
    Not including porosity effects

Solver_ running
 Applying restraint to: 
Modified forward dynamics running
qDdot[0]=0.570696
qDdot[2]=-0.544483
forces forces:
    rho: rho
    Not including porosity effects

Solver_ running
 Applying restraint to: 
Modified forward dynamics running
qDdot[0]=0.570696
qDdot[2]=-0.544483
forces forces:
    rho: rho
    Not including porosity effects

Solver_ running
 Applying restraint to: 
Modified forward dynamics running
qDdot[0]=0.570696
qDdot[2]=-0.544483
forces forces:
    rho: rho
    Not including porosity effects

Solver_ running
 Applying restraint to: 
Modified forward dynamics running
qDdot[0]=0.570696
qDdot[2]=-0.544483
forces forces:
    rho: rho
    Not including porosity effects

Solver_ running
 Applying restraint to: 
Modified forward dynamics running
qDdot[0]=0.570696
qDdot[2]=-0.544483
forces forces:
    rho: rho
    Not including porosity effects

Solver_ running
 Applying restraint to: 
Modified forward dynamics running
qDdot[0]=0.570696
qDdot[2]=-0.544483
Rigid-body motion of the movingWalls
    Centre of rotation: (0.00552352 -6.67415e-06 0.0138033)
    Orientation: (1 0 1.47241e-06 0 1 0 -1.47241e-06 0 1)
    Linear velocity: (0.0866538 -0.000870501 0.0908856)
    Angular velocity: (0 -2.65961e-05 0)
smoothSolver:  Solving for alpha.water, Initial residual = 1.16293e-05, Final residual = 9.13911e-09, No Iterations 2
Phase-1 volume fraction = 0.0392193  Min(alpha.water) = -3.40705e-24  Max(alpha.water) = 1.01121
MULES: Correcting alpha.water
MULES: Correcting alpha.water
Phase-1 volume fraction = 0.0392193  Min(alpha.water) = -3.40705e-24  Max(alpha.water) = 1.01121
GAMG:  Solving for p_rgh, Initial residual = 0.00309358, Final residual = 1.28588e-05, No Iterations 4
GAMG:  Solving for p_rgh, Initial residual = 0.000479299, Final residual = 2.21196e-06, No Iterations 4
time step continuity errors : sum local = 9.3725e-08, global = -3.42058e-11, cumulative = -2.58387e-05
GAMG:  Solving for p_rgh, Initial residual = 0.00291985, Final residual = 1.6003e-05, No Iterations 3
GAMG:  Solving for p_rgh, Initial residual = 0.000367828, Final residual = 2.60362e-06, No Iterations 4
time step continuity errors : sum local = 1.12376e-07, global = 3.38021e-09, cumulative = -2.58353e-05
GAMG:  Solving for p_rgh, Initial residual = 0.00303965, Final residual = 2.82834e-05, No Iterations 3
GAMG:  Solving for p_rgh, Initial residual = 0.000332847, Final residual = 7.47453e-07, No Iterations 6
time step continuity errors : sum local = 3.23799e-08, global = -1.13244e-09, cumulative = -2.58364e-05
ExecutionTime = 14.84 s  ClockTime = 14 s

fieldMinMax fieldMinMax1 write:
    min(mag(U)) = 0 in cell 43 at location (-0.0115485 0.00478355 0.33125) on processor 0
    max(mag(U)) = 357.125 in cell 7690 at location (-0.144729 -0.00314276 0.49688) on processor 0

forces forces1 write:
    Sum of forces
        Total    : (0.181394 -0.163983 1.00757)
        Pressure : (0.181228 -0.163983 1.00715)
        Viscous  : (0.000165956 3.51734e-07 0.000422708)
    Sum of moments
        Total    : (0.0533389 0.0617866 -1.39207e-09)
        Pressure : (0.053339 0.0617276 -1.60667e-09)
        Viscous  : (-1.51997e-07 5.89957e-05 2.14594e-10)
    writing force and moment files.

Courant Number mean: 0.00229969 max: 21.8416
Interface Courant Number mean: 4.86524e-05 max: 1.85843
deltaT = 0.000573577
Time = 0.121895

PIMPLE: iteration 1
forces forces:
    rho: rho
    Not including porosity effects

Solver_ running
 Applying restraint to: 
Modified forward dynamics running
qDdot[0]=0.568731
qDdot[2]=-0.546535
forces forces:
    rho: rho
    Not including porosity effects

Solver_ running
 Applying restraint to: 
Modified forward dynamics running
qDdot[0]=0.568731
qDdot[2]=-0.546535
forces forces:
    rho: rho
    Not including porosity effects

Solver_ running
 Applying restraint to: 
Modified forward dynamics running
qDdot[0]=0.568731
qDdot[2]=-0.546535
forces forces:
    rho: rho
    Not including porosity effects

Solver_ running
 Applying restraint to: 
Modified forward dynamics running
qDdot[0]=0.568731
qDdot[2]=-0.546535
forces forces:
    rho: rho
    Not including porosity effects

Solver_ running
 Applying restraint to: 
Modified forward dynamics running
qDdot[0]=0.568731
qDdot[2]=-0.546535
forces forces:
    rho: rho
    Not including porosity effects

Solver_ running
 Applying restraint to: 
Modified forward dynamics running
qDdot[0]=0.568731
qDdot[2]=-0.546535
forces forces:
    rho: rho
    Not including porosity effects

Solver_ running
 Applying restraint to: 
Modified forward dynamics running
qDdot[0]=0.568731
qDdot[2]=-0.546535
forces forces:
    rho: rho
    Not including porosity effects

Solver_ running
 Applying restraint to: 
Modified forward dynamics running
qDdot[0]=0.568731
qDdot[2]=-0.546535
forces forces:
    rho: rho
    Not including porosity effects

Solver_ running
 Applying restraint to: 
Modified forward dynamics running
qDdot[0]=0.568731
qDdot[2]=-0.546535
forces forces:
    rho: rho
    Not including porosity effects

Solver_ running
 Applying restraint to: 
Modified forward dynamics running
qDdot[0]=0.568731
qDdot[2]=-0.546535
forces forces:
    rho: rho
    Not including porosity effects

Solver_ running
 Applying restraint to: 
Modified forward dynamics running
qDdot[0]=0.568731
qDdot[2]=-0.546535
forces forces:
    rho: rho
    Not including porosity effects

Solver_ running
 Applying restraint to: 
Modified forward dynamics running
qDdot[0]=0.568731
qDdot[2]=-0.546535
Rigid-body motion of the movingWalls
    Centre of rotation: (0.00557332 -7.37074e-06 0.0138553)
    Orientation: (1 0 1.48779e-06 0 1 0 -1.48779e-06 0 1)
    Linear velocity: (0.0869806 -0.00155843 0.0905727)
    Angular velocity: (0 -2.70049e-05 0)
smoothSolver:  Solving for alpha.water, Initial residual = 1.07247e-05, Final residual = 3.02523e-09, No Iterations 3
Phase-1 volume fraction = 0.0392193  Min(alpha.water) = -2.96838e-24  Max(alpha.water) = 1.01121
MULES: Correcting alpha.water
MULES: Correcting alpha.water
Phase-1 volume fraction = 0.0392193  Min(alpha.water) = -5.29152e-06  Max(alpha.water) = 1.01121
GAMG:  Solving for p_rgh, Initial residual = 0.00389488, Final residual = 3.15899e-05, No Iterations 3
GAMG:  Solving for p_rgh, Initial residual = 0.000545932, Final residual = 2.96855e-06, No Iterations 5
time step continuity errors : sum local = 1.09024e-07, global = 6.87716e-09, cumulative = -2.58295e-05
GAMG:  Solving for p_rgh, Initial residual = 0.00378379, Final residual = 2.55665e-05, No Iterations 3
GAMG:  Solving for p_rgh, Initial residual = 0.00034695, Final residual = 1.70007e-06, No Iterations 5
time step continuity errors : sum local = 6.24264e-08, global = 5.86801e-09, cumulative = -2.58237e-05
GAMG:  Solving for p_rgh, Initial residual = 0.00390259, Final residual = 2.09248e-05, No Iterations 4
GAMG:  Solving for p_rgh, Initial residual = 0.000390233, Final residual = 5.20561e-07, No Iterations 7
time step continuity errors : sum local = 1.9131e-08, global = -2.20446e-09, cumulative = -2.58259e-05
ExecutionTime = 15.11 s  ClockTime = 15 s

fieldMinMax fieldMinMax1 write:
    min(mag(U)) = 0 in cell 43 at location (-0.0115485 0.00478355 0.33125) on processor 0
    max(mag(U)) = 206.538 in cell 3530 at location (-0.127407 -0.0156667 0.492993) on processor 0

forces forces1 write:
    Sum of forces
        Total    : (0.170713 -0.257511 1.00949)
        Pressure : (0.170545 -0.25751 1.00907)
        Viscous  : (0.000167586 -1.21533e-06 0.000421349)
    Sum of moments
        Total    : (0.0836416 0.0582491 -1.3432e-08)
        Pressure : (0.0836413 0.0581895 -1.38546e-08)
        Viscous  : (3.48232e-07 5.96581e-05 4.22628e-10)
    writing force and moment files.

Courant Number mean: 0.00225979 max: 18.8585
Interface Courant Number mean: 4.45898e-05 max: 1.59002
deltaT = 0.000610985
Time = 0.122506

PIMPLE: iteration 1
forces forces:
    rho: rho
    Not including porosity effects

Solver_ running
 Applying restraint to: 
Modified forward dynamics running
qDdot[0]=0.56663
qDdot[2]=-0.548713
forces forces:
    rho: rho
    Not including porosity effects

Solver_ running
 Applying restraint to: 
Modified forward dynamics running
qDdot[0]=0.56663
qDdot[2]=-0.548713
forces forces:
    rho: rho
    Not including porosity effects

Solver_ running
 Applying restraint to: 
Modified forward dynamics running
qDdot[0]=0.56663
qDdot[2]=-0.548713
forces forces:
    rho: rho
    Not including porosity effects

Solver_ running
 Applying restraint to: 
Modified forward dynamics running
qDdot[0]=0.56663
qDdot[2]=-0.548713
forces forces:
    rho: rho
    Not including porosity effects

Solver_ running
 Applying restraint to: 
Modified forward dynamics running
qDdot[0]=0.56663
qDdot[2]=-0.548713
forces forces:
    rho: rho
    Not including porosity effects

Solver_ running
 Applying restraint to: 
Modified forward dynamics running
qDdot[0]=0.56663
qDdot[2]=-0.548713
forces forces:
    rho: rho
    Not including porosity effects

Solver_ running
 Applying restraint to: 
Modified forward dynamics running
qDdot[0]=0.56663
qDdot[2]=-0.548713
forces forces:
    rho: rho
    Not including porosity effects

Solver_ running
 Applying restraint to: 
Modified forward dynamics running
qDdot[0]=0.56663
qDdot[2]=-0.548713
forces forces:
    rho: rho
    Not including porosity effects

Solver_ running
 Applying restraint to: 
Modified forward dynamics running
qDdot[0]=0.56663
qDdot[2]=-0.548713
forces forces:
    rho: rho
    Not including porosity effects

Solver_ running
 Applying restraint to: 
Modified forward dynamics running
qDdot[0]=0.56663
qDdot[2]=-0.548713
forces forces:
    rho: rho
    Not including porosity effects

Solver_ running
 Applying restraint to: 
Modified forward dynamics running
qDdot[0]=0.56663
qDdot[2]=-0.548713
forces forces:
    rho: rho
    Not including porosity effects

Solver_ running
 Applying restraint to: 
Modified forward dynamics running
qDdot[0]=0.56663
qDdot[2]=-0.548713
Rigid-body motion of the movingWalls
    Centre of rotation: (0.00562657 -7.4445e-06 0.0139105)
    Orientation: (1 0 1.50433e-06 0 1 0 -1.50433e-06 0 1)
    Linear velocity: (0.0873274 0.00131699 0.0902382)
    Angular velocity: (0 -2.71419e-05 0)
smoothSolver:  Solving for alpha.water, Initial residual = 1.13767e-05, Final residual = 4.77046e-09, No Iterations 3
Phase-1 volume fraction = 0.0392193  Min(alpha.water) = -1.62848e-25  Max(alpha.water) = 1.01122
MULES: Correcting alpha.water
MULES: Correcting alpha.water
Phase-1 volume fraction = 0.0392193  Min(alpha.water) = -1.62848e-25  Max(alpha.water) = 1.01122
GAMG:  Solving for p_rgh, Initial residual = 0.00426251, Final residual = 2.8525e-05, No Iterations 4
GAMG:  Solving for p_rgh, Initial residual = 0.000725723, Final residual = 3.95949e-06, No Iterations 4
time step continuity errors : sum local = 1.64947e-07, global = 9.42564e-09, cumulative = -2.58164e-05
GAMG:  Solving for p_rgh, Initial residual = 0.0032109, Final residual = 3.07976e-05, No Iterations 3
GAMG:  Solving for p_rgh, Initial residual = 0.000382412, Final residual = 3.4146e-06, No Iterations 4
time step continuity errors : sum local = 1.4213e-07, global = 1.23821e-08, cumulative = -2.58041e-05
GAMG:  Solving for p_rgh, Initial residual = 0.00267297, Final residual = 1.79978e-05, No Iterations 4
GAMG:  Solving for p_rgh, Initial residual = 0.000296373, Final residual = 9.66259e-07, No Iterations 5
time step continuity errors : sum local = 4.02262e-08, global = -4.0926e-09, cumulative = -2.58081e-05
ExecutionTime = 15.4 s  ClockTime = 15 s

fieldMinMax fieldMinMax1 write:
    min(mag(U)) = 0 in cell 43 at location (-0.0115485 0.00478355 0.33125) on processor 0
    max(mag(U)) = 132.258 in cell 3381 at location (-0.121497 -0.0219277 0.498375) on processor 0

forces forces1 write:
    Sum of forces
        Total    : (0.143994 0.211257 1.01258)
        Pressure : (0.143826 0.211256 1.01216)
        Viscous  : (0.000168695 5.67083e-07 0.000419865)
    Sum of moments
        Total    : (-0.0693776 0.0485071 -1.54242e-09)
        Pressure : (-0.0693773 0.048447 -2.11791e-09)
        Viscous  : (-2.95632e-07 6.00749e-05 5.75494e-10)
    writing force and moment files.

Courant Number mean: 0.00248206 max: 11.0925
Interface Courant Number mean: 4.89249e-05 max: 2.59837
deltaT = 0.000723534
Time = 0.123229

PIMPLE: iteration 1
forces forces:
    rho: rho
    Not including porosity effects

Solver_ running
 Applying restraint to: 
Modified forward dynamics running
qDdot[0]=0.56413
qDdot[2]=-0.551282
forces forces:
    rho: rho
    Not including porosity effects

Solver_ running
 Applying restraint to: 
Modified forward dynamics running
qDdot[0]=0.56413
qDdot[2]=-0.551282
forces forces:
    rho: rho
    Not including porosity effects

Solver_ running
 Applying restraint to: 
Modified forward dynamics running
qDdot[0]=0.56413
qDdot[2]=-0.551282
forces forces:
    rho: rho
    Not including porosity effects

Solver_ running
 Applying restraint to: 
Modified forward dynamics running
qDdot[0]=0.56413
qDdot[2]=-0.551282
forces forces:
    rho: rho
    Not including porosity effects

Solver_ running
 Applying restraint to: 
Modified forward dynamics running
qDdot[0]=0.56413
qDdot[2]=-0.551282
forces forces:
    rho: rho
    Not including porosity effects

Solver_ running
 Applying restraint to: 
Modified forward dynamics running
qDdot[0]=0.56413
qDdot[2]=-0.551282
forces forces:
    rho: rho
    Not including porosity effects

Solver_ running
 Applying restraint to: 
Modified forward dynamics running
qDdot[0]=0.56413
qDdot[2]=-0.551282
forces forces:
    rho: rho
    Not including porosity effects

Solver_ running
 Applying restraint to: 
Modified forward dynamics running
qDdot[0]=0.56413
qDdot[2]=-0.551282
forces forces:
    rho: rho
    Not including porosity effects

Solver_ running
 Applying restraint to: 
Modified forward dynamics running
qDdot[0]=0.56413
qDdot[2]=-0.551282
forces forces:
    rho: rho
    Not including porosity effects

Solver_ running
 Applying restraint to: 
Modified forward dynamics running
qDdot[0]=0.56413
qDdot[2]=-0.551282
forces forces:
    rho: rho
    Not including porosity effects

Solver_ running
 Applying restraint to: 
Modified forward dynamics running
qDdot[0]=0.56413
qDdot[2]=-0.551282
forces forces:
    rho: rho
    Not including porosity effects

Solver_ running
 Applying restraint to: 
Modified forward dynamics running
qDdot[0]=0.56413
qDdot[2]=-0.551282
Rigid-body motion of the movingWalls
    Centre of rotation: (0.0056899 -6.33308e-06 0.0139757)
    Orientation: (1 0 1.52402e-06 0 1 0 -1.52402e-06 0 1)
    Linear velocity: (0.0877365 0.00175521 0.0898402)
    Angular velocity: (0 -2.72994e-05 0)
smoothSolver:  Solving for alpha.water, Initial residual = 1.34917e-05, Final residual = 4.10804e-09, No Iterations 4
Phase-1 volume fraction = 0.0392193  Min(alpha.water) = -4.75397e-26  Max(alpha.water) = 1.01122
MULES: Correcting alpha.water
MULES: Correcting alpha.water
Phase-1 volume fraction = 0.0392193  Min(alpha.water) = -0.00015862  Max(alpha.water) = 1.01122
[0] [stack trace]
[0] =============
[0] #1  Foam::sigFpe::sigHandler(int) in /usr/lib/openfoam/openfoam2312/platforms/linux64GccDPInt32Opt/lib/libOpenFOAM.so
[0] #2  ? in /lib/x86_64-linux-gnu/libc.so.6
[0] #3  Foam::GAMGSolver::scale(Foam::Field<double>&, Foam::Field<double>&, Foam::lduMatrix const&, Foam::FieldField<Foam::Field, double> const&, Foam::UPtrList<Foam::lduInterfaceField const> const&, Foam::Field<double> const&, unsigned char) const in /usr/lib/openfoam/openfoam2312/platforms/linux64GccDPInt32Opt/lib/libOpenFOAM.so
[0] #4  Foam::GAMGSolver::Vcycle(Foam::PtrList<Foam::lduMatrix::smoother> const&, Foam::Field<double>&, Foam::Field<double> const&, Foam::Field<double>&, Foam::Field<double>&, Foam::Field<double>&, Foam::Field<double>&, Foam::Field<double>&, Foam::PtrList<Foam::Field<double> >&, Foam::PtrList<Foam::Field<double> >&, unsigned char) const in /usr/lib/openfoam/openfoam2312/platforms/linux64GccDPInt32Opt/lib/libOpenFOAM.so
[0] #5  Foam::GAMGSolver::solve(Foam::Field<double>&, Foam::Field<double> const&, unsigned char) const in /usr/lib/openfoam/openfoam2312/platforms/linux64GccDPInt32Opt/lib/libOpenFOAM.so
[0] #6  Foam::fvMatrix<double>::solveSegregated(Foam::dictionary const&) in /usr/lib/openfoam/openfoam2312/platforms/linux64GccDPInt32Opt/lib/libfiniteVolume.so
[0] #7  ? in /usr/lib/openfoam/openfoam2312/platforms/linux64GccDPInt32Opt/lib/libfiniteVolume.so
[0] #8  Foam::fvMesh::solve(Foam::fvMatrix<double>&, Foam::dictionary const&) const in /usr/lib/openfoam/openfoam2312/platforms/linux64GccDPInt32Opt/lib/libfiniteVolume.so
[0] #9  ? in /usr/lib/openfoam/openfoam2312/platforms/linux64GccDPInt32Opt/bin/interFoam
[0] #10  ? in /lib/x86_64-linux-gnu/libc.so.6
[0] #11  __libc_start_main in /lib/x86_64-linux-gnu/libc.so.6
[0] #12  ? in /usr/lib/openfoam/openfoam2312/platforms/linux64GccDPInt32Opt/bin/interFoam
[0] =============
[U038472:3081270] *** Process received signal ***
[U038472:3081270] Signal: Floating point exception (8)
[U038472:3081270] Signal code:  (-6)
[U038472:3081270] Failing at address: 0x3e8002f0436
[U038472:3081270] [ 0] /lib/x86_64-linux-gnu/libc.so.6(+0x42520)[0x7f3a81a42520]
[U038472:3081270] [ 1] /lib/x86_64-linux-gnu/libc.so.6(pthread_kill+0x12c)[0x7f3a81a969fc]
[U038472:3081270] [ 2] /lib/x86_64-linux-gnu/libc.so.6(raise+0x16)[0x7f3a81a42476]
[U038472:3081270] [ 3] /lib/x86_64-linux-gnu/libc.so.6(+0x42520)[0x7f3a81a42520]
[U038472:3081270] [ 4] /usr/lib/openfoam/openfoam2312/platforms/linux64GccDPInt32Opt/lib/libOpenFOAM.so(_ZNK4Foam10GAMGSolver5scaleERNS_5FieldIdEES3_RKNS_9lduMatrixERKNS_10FieldFieldIS1_dEERKNS_8UPtrListIKNS_17lduInterfaceFieldEEERKS2_h+0xca)[0x7f3a8266eb5a]
[U038472:3081270] [ 5] /usr/lib/openfoam/openfoam2312/platforms/linux64GccDPInt32Opt/lib/libOpenFOAM.so(_ZNK4Foam10GAMGSolver6VcycleERKNS_7PtrListINS_9lduMatrix8smootherEEERNS_5FieldIdEERKS8_S9_S9_S9_S9_S9_RNS1_IS8_EESD_h+0x6d3)[0x7f3a82679e73]
[U038472:3081270] [ 6] /usr/lib/openfoam/openfoam2312/platforms/linux64GccDPInt32Opt/lib/libOpenFOAM.so(_ZNK4Foam10GAMGSolver5solveERNS_5FieldIdEERKS2_h+0x47b)[0x7f3a8267af5b]
[U038472:3081270] [ 7] /usr/lib/openfoam/openfoam2312/platforms/linux64GccDPInt32Opt/lib/libfiniteVolume.so(_ZN4Foam8fvMatrixIdE15solveSegregatedERKNS_10dictionaryE+0x3e4)[0x7f3a84702ec4]
[U038472:3081270] [ 8] /usr/lib/openfoam/openfoam2312/platforms/linux64GccDPInt32Opt/lib/libfiniteVolume.so(+0x4b10b5)[0x7f3a842b10b5]
[U038472:3081270] [ 9] /usr/lib/openfoam/openfoam2312/platforms/linux64GccDPInt32Opt/lib/libfiniteVolume.so(_ZNK4Foam6fvMesh5solveERNS_8fvMatrixIdEERKNS_10dictionaryE+0x28)[0x7f3a842a06e8]
[U038472:3081270] [10] interFoam(+0x32cb8)[0x5b9357e12cb8]
[U038472:3081270] [11] /lib/x86_64-linux-gnu/libc.so.6(+0x29d90)[0x7f3a81a29d90]
[U038472:3081270] [12] /lib/x86_64-linux-gnu/libc.so.6(__libc_start_main+0x80)[0x7f3a81a29e40]
[U038472:3081270] [13] interFoam(+0x3da15)[0x5b9357e1da15]
[U038472:3081270] *** End of error message ***
--------------------------------------------------------------------------
Primary job  terminated normally, but 1 process returned
a non-zero exit code. Per user-direction, the job has been aborted.
--------------------------------------------------------------------------
--------------------------------------------------------------------------
mpirun noticed that process rank 0 with PID 0 on node U038472 exited on signal 8 (Floating point exception).
--------------------------------------------------------------------------
